/home/welcome3/Viscacha_pipeline/outputs/docking_campaign/CHRNA7_encenicline/prepared/encenicline_I33_A601_crystal.pdb
 OpenBabel08252613383D

 38 41  0  0  1  0  0  0  0  0999 V2000
  143.1760  139.6030   90.0700 C   0  0  0  0  0  0  0  0  0  0  0  0
  144.0390  138.4370   90.5650 C   0  0  0  0  0  0  0  0  0  0  0  0
  143.5860  137.2130   90.9220 C   0  0  0  0  0  0  0  0  0  0  0  0
  144.5190  136.2170   91.3660 C   0  0  0  0  0  0  0  0  0  0  0  0
  145.8810  136.6790   91.3750 C   0  0  0  0  0  0  0  0  0  0  0  0
  146.8850  135.8320   91.7790 C   0  0  0  0  0  0  0  0  0  0  0  0
  146.5770  134.5280   92.1790 C   0  0  0  0  0  0  0  0  0  0  0  0
  145.2450  134.0800   92.1680 C   0  0  0  0  0  0  0  0  0  0  0  0
  144.2240  134.9380   91.7580 C   0  0  0  0  0  0  0  0  0  0  0  0
  140.9240  140.6140   89.5100 C   0  0  1  0  0  0  0  0  0  0  0  0
  140.5000  140.3770   88.0470 C   0  0  0  0  0  0  0  0  0  0  0  0
  139.7160  140.7470   90.3190 C   0  0  1  0  0  0  0  0  0  0  0  0
  138.9330  141.8320   89.7970 C   0  0  0  0  0  0  0  0  0  0  0  0
  138.5950  141.5880   88.3560 C   0  0  0  0  0  0  0  0  0  0  0  0
  138.5500  139.3320   88.6760 C   0  0  0  0  0  0  0  0  0  0  0  0
  138.9400  139.5160   90.1920 C   0  0  0  0  0  0  0  0  0  0  0  0
  141.7340  139.4720   89.9920 N   0  0  0  0  0  0  0  0  0  0  0  0
  139.1090  140.3880   87.9150 N   0  0  2  0  0  0  0  0  0  0  0  0
  143.6930  140.6180   89.7460 O   0  0  0  0  0  0  0  0  0  0  0  0
  145.7650  138.3950   90.7860 S   0  0  0  0  0  0  0  0  0  0  0  0
  148.5770  136.3940   91.7930 Cl  0  0  0  0  0  0  0  0  0  0  0  0
  142.5778  136.9974   90.8754 H   0  0  0  0  0  0  0  0  0  0  0  0
  147.3307  133.8922   92.4835 H   0  0  0  0  0  0  0  0  0  0  0  0
  145.0221  133.1166   92.4631 H   0  0  0  0  0  0  0  0  0  0  0  0
  143.2459  134.6089   91.7501 H   0  0  0  0  0  0  0  0  0  0  0  0
  141.5158  141.5024   89.5840 H   0  0  0  0  0  0  0  0  0  0  0  0
  140.9147  141.1498   87.4341 H   0  0  0  0  0  0  0  0  0  0  0  0
  140.8614  139.4174   87.7411 H   0  0  0  0  0  0  0  0  0  0  0  0
  139.9697  140.9288   91.3425 H   0  0  0  0  0  0  0  0  0  0  0  0
  138.0281  141.9172   90.3617 H   0  0  0  0  0  0  0  0  0  0  0  0
  139.5001  142.7363   89.8719 H   0  0  0  0  0  0  0  0  0  0  0  0
  137.5308  141.5723   88.2459 H   0  0  0  0  0  0  0  0  0  0  0  0
  139.0258  142.3739   87.7714 H   0  0  0  0  0  0  0  0  0  0  0  0
  138.9290  138.3965   88.3209 H   0  0  0  0  0  0  0  0  0  0  0  0
  137.4847  139.3449   88.5768 H   0  0  0  0  0  0  0  0  0  0  0  0
  139.5268  138.6829   90.5185 H   0  0  0  0  0  0  0  0  0  0  0  0
  138.0583  139.5717   90.7957 H   0  0  0  0  0  0  0  0  0  0  0  0
  141.2971  138.6306   90.2573 H   0  0  0  0  0  0  0  0  0  0  0  0
  1  2  1  0  0  0  0
  2 20  1  0  0  0  0
  2  3  2  0  0  0  0
  3  4  1  0  0  0  0
  3 22  1  0  0  0  0
  4  5  2  0  0  0  0
  4  9  1  0  0  0  0
  5  6  1  0  0  0  0
  6 21  1  0  0  0  0
  6  7  2  0  0  0  0
  7 23  1  0  0  0  0
  8  7  1  0  0  0  0
  8 24  1  0  0  0  0
  9  8  2  0  0  0  0
  9 25  1  0  0  0  0
 10 17  1  0  0  0  0
 10 12  1  0  0  0  0
 10 26  1  1  0  0  0
 11 10  1  0  0  0  0
 11 27  1  0  0  0  0
 11 28  1  0  0  0  0
 12 29  1  1  0  0  0
 13 12  1  0  0  0  0
 13 30  1  0  0  0  0
 13 31  1  0  0  0  0
 14 13  1  0  0  0  0
 14 32  1  0  0  0  0
 14 33  1  0  0  0  0
 15 16  1  0  0  0  0
 15 34  1  0  0  0  0
 15 35  1  0  0  0  0
 16 12  1  0  0  0  0
 16 36  1  0  0  0  0
 16 37  1  0  0  0  0
 17  1  1  0  0  0  0
 17 38  1  0  0  0  0
 18 11  1  1  0  0  0
 18 14  1  0  0  0  0
 18 15  1  0  0  0  0
 19  1  2  0  0  0  0
 20  5  1  0  0  0  0
M  END
$$$$
