BACE1_verubecestat__alternate_457_seed20260825_ex32__pose01
     RDKit          3D

 45 47  0  0  0  0  0  0  0  0999 V2000
   27.7810   12.7070   23.5290 C   0  0  0  0  0  0  0  0  0  0  0  0
   26.8740   13.1510   22.4510 N   0  0  0  0  0  0  0  0  0  0  0  0
   25.9660   14.2230   22.6010 C   0  0  0  0  0  0  0  0  0  0  0  0
   26.1070   14.9100   23.7770 N   0  0  0  0  0  0  0  0  0  0  0  0
   25.0890   14.5560   21.7060 N   0  0  0  0  0  0  0  0  0  0  0  0
   24.8840   13.7590   20.4970 C   0  0  2  0  0  0  0  0  0  0  0  0
   24.1590   14.7320   19.5640 C   0  0  0  0  0  0  0  0  0  0  0  0
   23.9840   12.5590   20.7510 C   0  0  0  0  0  0  0  0  0  0  0  0
   23.4690   12.3010   22.0210 C   0  0  0  0  0  0  0  0  0  0  0  0
   22.6550   11.2220   22.2800 C   0  0  0  0  0  0  0  0  0  0  0  0
   22.2040   11.0790   23.5990 N   0  0  0  0  0  0  0  0  0  0  0  0
   22.9160   11.2490   24.7720 C   0  0  0  0  0  0  0  0  0  0  0  0
   24.1240   11.4350   24.8420 O   0  0  0  0  0  0  0  0  0  0  0  0
   22.1050   11.2330   26.0140 C   0  0  0  0  0  0  0  0  0  0  0  0
   20.8920   10.5680   26.0380 C   0  0  0  0  0  0  0  0  0  0  0  0
   20.1760   10.5870   27.2210 C   0  0  0  0  0  0  0  0  0  0  0  0
   20.6830   11.2510   28.3220 C   0  0  0  0  0  0  0  0  0  0  0  0
   20.0190   11.3050   29.4890 F   0  0  0  0  0  0  0  0  0  0  0  0
   21.8960   11.8890   28.1980 C   0  0  0  0  0  0  0  0  0  0  0  0
   22.6110   11.8930   27.0610 N   0  0  0  0  0  0  0  0  0  0  0  0
   22.2960   10.3510   21.2590 C   0  0  0  0  0  0  0  0  0  0  0  0
   22.8000   10.5900   19.9930 C   0  0  0  0  0  0  0  0  0  0  0  0
   23.6420   11.6580   19.7550 C   0  0  0  0  0  0  0  0  0  0  0  0
   24.1470   11.8530   18.5090 F   0  0  0  0  0  0  0  0  0  0  0  0
   26.2150   13.4370   19.8550 C   0  0  0  0  0  0  0  0  0  0  0  0
   27.1980   12.4190   20.9270 S   0  0  0  0  0  0  0  0  0  0  0  0
   28.5860   12.6970   20.6030 O   0  0  0  0  0  0  0  0  0  0  0  0
   26.6510   11.1050   21.0550 O   0  0  0  0  0  0  0  0  0  0  0  0
   27.3264   12.9296   24.5056 H   0  0  0  0  0  0  0  0  0  0  0  0
   27.9512   11.6237   23.4421 H   0  0  0  0  0  0  0  0  0  0  0  0
   28.7409   13.2371   23.4421 H   0  0  0  0  0  0  0  0  0  0  0  0
   25.5190   15.6750   23.9740 H   0  0  0  0  0  0  0  0  0  0  0  0
   26.7970   14.6390   24.4260 H   0  0  0  0  0  0  0  0  0  0  0  0
   23.6076   15.4720   20.1627 H   0  0  0  0  0  0  0  0  0  0  0  0
   24.8944   15.2483   18.9294 H   0  0  0  0  0  0  0  0  0  0  0  0
   23.4540   14.1750   18.9294 H   0  0  0  0  0  0  0  0  0  0  0  0
   23.7224   12.9842   22.8450 H   0  0  0  0  0  0  0  0  0  0  0  0
   21.2580   10.8240   23.7030 H   0  0  0  0  0  0  0  0  0  0  0  0
   20.5112   10.0436   25.1491 H   0  0  0  0  0  0  0  0  0  0  0  0
   19.2048   10.0746   27.2856 H   0  0  0  0  0  0  0  0  0  0  0  0
   22.2994   12.4213   29.0720 H   0  0  0  0  0  0  0  0  0  0  0  0
   21.6306    9.4965   21.4515 H   0  0  0  0  0  0  0  0  0  0  0  0
   22.5262    9.9200   19.1647 H   0  0  0  0  0  0  0  0  0  0  0  0
   26.0401   12.9025   18.9096 H   0  0  0  0  0  0  0  0  0  0  0  0
   26.7541   14.3773   19.6674 H   0  0  0  0  0  0  0  0  0  0  0  0
  1  2  1  0
  2  3  1  0
  3  4  1  0
  3  5  2  0
  5  6  1  0
  6  7  1  6
  6  8  1  0
  8  9  2  0
  9 10  1  0
 10 11  1  0
 11 12  1  0
 12 13  2  0
 12 14  1  0
 14 15  2  0
 15 16  1  0
 16 17  2  0
 17 18  1  0
 17 19  1  0
 19 20  2  0
 10 21  2  0
 21 22  1  0
 22 23  2  0
 23 24  1  0
  6 25  1  0
 25 26  1  0
 26 27  2  0
 26 28  2  0
 26  2  1  0
 23  8  1  0
 20 14  1  0
  1 29  1  0
  1 30  1  0
  1 31  1  0
  4 32  1  0
  4 33  1  0
  7 34  1  0
  7 35  1  0
  7 36  1  0
  9 37  1  0
 11 38  1  0
 15 39  1  0
 16 40  1  0
 19 41  1  0
 21 42  1  0
 22 43  1  0
 25 44  1  0
 25 45  1  0
M  END
>  <meeko>  (1)
{"is_sidechain": false}

>  <source_group>  (1)
BACE1-457

>  <source_system>  (1)
BACE1_verubecestat

>  <source_run>  (1)
alternate_457_seed20260825_ex32

>  <source_seed>  (1)
20260825

>  <vina_pose_rank>  (1)
1

>  <vina_affinity_kcal_mol>  (1)
-8.3049999999999997

>  <vina_rmsd_to_crystal_angstrom>  (1)
6.9968000000000004

$$$$
BACE1_verubecestat__alternate_457_seed20260825_ex32__pose02
     RDKit          3D

 45 47  0  0  0  0  0  0  0  0999 V2000
   28.3250    9.7380   21.0340 C   0  0  0  0  0  0  0  0  0  0  0  0
   27.9310   11.1500   20.8580 N   0  0  0  0  0  0  0  0  0  0  0  0
   27.9530   12.0920   21.9110 C   0  0  0  0  0  0  0  0  0  0  0  0
   28.5140   11.6200   23.0670 N   0  0  0  0  0  0  0  0  0  0  0  0
   27.5090   13.3060   21.8020 N   0  0  0  0  0  0  0  0  0  0  0  0
   26.8270   13.7690   20.5940 C   0  0  2  0  0  0  0  0  0  0  0  0
   26.9180   15.2930   20.7120 C   0  0  0  0  0  0  0  0  0  0  0  0
   25.3610   13.3650   20.5770 C   0  0  0  0  0  0  0  0  0  0  0  0
   24.7560   12.8010   21.6990 C   0  0  0  0  0  0  0  0  0  0  0  0
   23.4320   12.4240   21.7100 C   0  0  0  0  0  0  0  0  0  0  0  0
   22.9470   11.8720   22.9030 N   0  0  0  0  0  0  0  0  0  0  0  0
   22.4420   12.5320   24.0100 C   0  0  0  0  0  0  0  0  0  0  0  0
   22.4590   13.7450   24.1750 O   0  0  0  0  0  0  0  0  0  0  0  0
   21.8110   11.6620   25.0320 C   0  0  0  0  0  0  0  0  0  0  0  0
   21.9240   10.2860   24.9340 C   0  0  0  0  0  0  0  0  0  0  0  0
   21.3140    9.5230   25.9140 C   0  0  0  0  0  0  0  0  0  0  0  0
   20.6290   10.1430   26.9410 C   0  0  0  0  0  0  0  0  0  0  0  0
   20.0130    9.4430   27.9100 F   0  0  0  0  0  0  0  0  0  0  0  0
   20.5680   11.5180   26.9500 C   0  0  0  0  0  0  0  0  0  0  0  0
   21.1440   12.2850   26.0100 N   0  0  0  0  0  0  0  0  0  0  0  0
   22.6360   12.6170   20.5880 C   0  0  0  0  0  0  0  0  0  0  0  0
   23.2210   13.1720   19.4640 C   0  0  0  0  0  0  0  0  0  0  0  0
   24.5580   13.5160   19.4570 C   0  0  0  0  0  0  0  0  0  0  0  0
   25.1150   14.0320   18.3310 F   0  0  0  0  0  0  0  0  0  0  0  0
   27.6160   13.3710   19.3670 C   0  0  0  0  0  0  0  0  0  0  0  0
   27.6900   11.6040   19.2150 S   0  0  0  0  0  0  0  0  0  0  0  0
   28.9180   11.3010   18.5010 O   0  0  0  0  0  0  0  0  0  0  0  0
   26.4140   11.0480   18.8910 O   0  0  0  0  0  0  0  0  0  0  0  0
   28.3896    9.5064   22.1074 H   0  0  0  0  0  0  0  0  0  0  0  0
   27.5744    9.0864   20.5629 H   0  0  0  0  0  0  0  0  0  0  0  0
   29.3046    9.5692   20.5629 H   0  0  0  0  0  0  0  0  0  0  0  0
   28.5750   12.2030   23.8580 H   0  0  0  0  0  0  0  0  0  0  0  0
   28.8570   10.6980   23.1080 H   0  0  0  0  0  0  0  0  0  0  0  0
   26.9350   15.5781   21.7743 H   0  0  0  0  0  0  0  0  0  0  0  0
   27.8387   15.6443   20.2233 H   0  0  0  0  0  0  0  0  0  0  0  0
   26.0456   15.7514   20.2233 H   0  0  0  0  0  0  0  0  0  0  0  0
   25.3577   12.6519   22.6077 H   0  0  0  0  0  0  0  0  0  0  0  0
   22.9680   10.8890   22.9610 H   0  0  0  0  0  0  0  0  0  0  0  0
   22.4781    9.8165   24.1078 H   0  0  0  0  0  0  0  0  0  0  0  0
   21.3744    8.4253   25.8754 H   0  0  0  0  0  0  0  0  0  0  0  0
   20.0212   12.0125   27.7664 H   0  0  0  0  0  0  0  0  0  0  0  0
   21.5723   12.3369   20.5932 H   0  0  0  0  0  0  0  0  0  0  0  0
   22.6125   13.3416   18.5634 H   0  0  0  0  0  0  0  0  0  0  0  0
   27.1302   13.7903   18.4736 H   0  0  0  0  0  0  0  0  0  0  0  0
   28.6400   13.7610   19.4630 H   0  0  0  0  0  0  0  0  0  0  0  0
  1  2  1  0
  2  3  1  0
  3  4  1  0
  3  5  2  0
  5  6  1  0
  6  7  1  1
  6  8  1  0
  8  9  2  0
  9 10  1  0
 10 11  1  0
 11 12  1  0
 12 13  2  0
 12 14  1  0
 14 15  2  0
 15 16  1  0
 16 17  2  0
 17 18  1  0
 17 19  1  0
 19 20  2  0
 10 21  2  0
 21 22  1  0
 22 23  2  0
 23 24  1  0
  6 25  1  0
 25 26  1  0
 26 27  2  0
 26 28  2  0
 26  2  1  0
 23  8  1  0
 20 14  1  0
  1 29  1  0
  1 30  1  0
  1 31  1  0
  4 32  1  0
  4 33  1  0
  7 34  1  0
  7 35  1  0
  7 36  1  0
  9 37  1  0
 11 38  1  0
 15 39  1  0
 16 40  1  0
 19 41  1  0
 21 42  1  0
 22 43  1  0
 25 44  1  0
 25 45  1  0
M  END
>  <meeko>  (2)
{"is_sidechain": false}

>  <source_group>  (2)
BACE1-457

>  <source_system>  (2)
BACE1_verubecestat

>  <source_run>  (2)
alternate_457_seed20260825_ex32

>  <source_seed>  (2)
20260825

>  <vina_pose_rank>  (2)
2

>  <vina_affinity_kcal_mol>  (2)
-7.9889999999999999

>  <vina_rmsd_to_crystal_angstrom>  (2)
7.3166000000000002

$$$$
BACE1_verubecestat__alternate_457_seed20260825_ex32__pose03
     RDKit          3D

 45 47  0  0  0  0  0  0  0  0999 V2000
   22.7370    4.8220   19.1740 C   0  0  0  0  0  0  0  0  0  0  0  0
   22.1340    5.8520   18.3060 N   0  0  0  0  0  0  0  0  0  0  0  0
   21.9940    5.6960   16.9090 C   0  0  0  0  0  0  0  0  0  0  0  0
   22.3260    4.4480   16.4540 N   0  0  0  0  0  0  0  0  0  0  0  0
   21.5680    6.6310   16.1170 N   0  0  0  0  0  0  0  0  0  0  0  0
   21.3080    7.9860   16.5990 C   0  0  2  0  0  0  0  0  0  0  0  0
   20.4110    8.5730   15.5060 C   0  0  0  0  0  0  0  0  0  0  0  0
   22.5800    8.8150   16.6870 C   0  0  0  0  0  0  0  0  0  0  0  0
   23.8040    8.3020   16.2600 C   0  0  0  0  0  0  0  0  0  0  0  0
   24.9710    9.0280   16.3310 C   0  0  0  0  0  0  0  0  0  0  0  0
   26.1320    8.3960   15.8660 N   0  0  0  0  0  0  0  0  0  0  0  0
   27.3270    8.2000   16.5350 C   0  0  0  0  0  0  0  0  0  0  0  0
   27.6090    8.6740   17.6280 O   0  0  0  0  0  0  0  0  0  0  0  0
   28.2970    7.3100   15.8510 C   0  0  0  0  0  0  0  0  0  0  0  0
   27.9200    6.0300   15.4840 C   0  0  0  0  0  0  0  0  0  0  0  0
   28.8650    5.2420   14.8500 C   0  0  0  0  0  0  0  0  0  0  0  0
   30.1280    5.7460   14.6040 C   0  0  0  0  0  0  0  0  0  0  0  0
   31.0810    5.0160   14.0000 F   0  0  0  0  0  0  0  0  0  0  0  0
   30.4100    7.0300   15.0120 C   0  0  0  0  0  0  0  0  0  0  0  0
   29.5160    7.8160   15.6340 N   0  0  0  0  0  0  0  0  0  0  0  0
   24.9620   10.3280   16.8190 C   0  0  0  0  0  0  0  0  0  0  0  0
   23.7570   10.8530   17.2510 C   0  0  0  0  0  0  0  0  0  0  0  0
   22.5990   10.1010   17.2040 C   0  0  0  0  0  0  0  0  0  0  0  0
   21.4340   10.6290   17.6610 F   0  0  0  0  0  0  0  0  0  0  0  0
   20.4860    7.9370   17.8680 C   0  0  0  0  0  0  0  0  0  0  0  0
   21.3910    7.1420   19.1710 S   0  0  0  0  0  0  0  0  0  0  0  0
   20.4060    6.5520   20.0590 O   0  0  0  0  0  0  0  0  0  0  0  0
   22.4930    7.9390   19.6100 O   0  0  0  0  0  0  0  0  0  0  0  0
   22.5786    5.0925   20.2284 H   0  0  0  0  0  0  0  0  0  0  0  0
   22.2658    3.8491   18.9703 H   0  0  0  0  0  0  0  0  0  0  0  0
   23.8160    4.7567   18.9703 H   0  0  0  0  0  0  0  0  0  0  0  0
   22.2610    4.2410   15.4930 H   0  0  0  0  0  0  0  0  0  0  0  0
   22.6290    3.7570   17.0870 H   0  0  0  0  0  0  0  0  0  0  0  0
   19.5766    9.1190   15.9704 H   0  0  0  0  0  0  0  0  0  0  0  0
   20.9977    9.2624   14.8811 H   0  0  0  0  0  0  0  0  0  0  0  0
   20.0141    7.7593   14.8811 H   0  0  0  0  0  0  0  0  0  0  0  0
   23.8382    7.2810   15.8520 H   0  0  0  0  0  0  0  0  0  0  0  0
   26.0920    8.0480   14.9460 H   0  0  0  0  0  0  0  0  0  0  0  0
   26.9071    5.6529   15.6885 H   0  0  0  0  0  0  0  0  0  0  0  0
   28.6112    4.2168   14.5426 H   0  0  0  0  0  0  0  0  0  0  0  0
   31.4158    7.4316   14.8194 H   0  0  0  0  0  0  0  0  0  0  0  0
   25.8861   10.9232   16.8609 H   0  0  0  0  0  0  0  0  0  0  0  0
   23.7205   11.8825   17.6369 H   0  0  0  0  0  0  0  0  0  0  0  0
   20.2357    8.9629   18.1760 H   0  0  0  0  0  0  0  0  0  0  0  0
   19.5684    7.3625   17.6731 H   0  0  0  0  0  0  0  0  0  0  0  0
  1  2  1  0
  2  3  1  0
  3  4  1  0
  3  5  2  0
  5  6  1  0
  6  7  1  6
  6  8  1  0
  8  9  2  0
  9 10  1  0
 10 11  1  0
 11 12  1  0
 12 13  2  0
 12 14  1  0
 14 15  2  0
 15 16  1  0
 16 17  2  0
 17 18  1  0
 17 19  1  0
 19 20  2  0
 10 21  2  0
 21 22  1  0
 22 23  2  0
 23 24  1  0
  6 25  1  0
 25 26  1  0
 26 27  2  0
 26 28  2  0
 26  2  1  0
 23  8  1  0
 20 14  1  0
  1 29  1  0
  1 30  1  0
  1 31  1  0
  4 32  1  0
  4 33  1  0
  7 34  1  0
  7 35  1  0
  7 36  1  0
  9 37  1  0
 11 38  1  0
 15 39  1  0
 16 40  1  0
 19 41  1  0
 21 42  1  0
 22 43  1  0
 25 44  1  0
 25 45  1  0
M  END
>  <meeko>  (3)
{"is_sidechain": false}

>  <source_group>  (3)
BACE1-457

>  <source_system>  (3)
BACE1_verubecestat

>  <source_run>  (3)
alternate_457_seed20260825_ex32

>  <source_seed>  (3)
20260825

>  <vina_pose_rank>  (3)
3

>  <vina_affinity_kcal_mol>  (3)
-7.9729999999999999

>  <vina_rmsd_to_crystal_angstrom>  (3)
6.5221

$$$$
BACE1_verubecestat__alternate_457_seed20260825_ex32__pose04
     RDKit          3D

 45 47  0  0  0  0  0  0  0  0999 V2000
   22.2360   13.0360   19.5520 C   0  0  0  0  0  0  0  0  0  0  0  0
   23.6590   12.6830   19.7200 N   0  0  0  0  0  0  0  0  0  0  0  0
   24.1030   11.3640   19.9630 C   0  0  0  0  0  0  0  0  0  0  0  0
   23.1130   10.4210   19.8790 N   0  0  0  0  0  0  0  0  0  0  0  0
   25.3350   11.0530   20.2200 N   0  0  0  0  0  0  0  0  0  0  0  0
   26.3640   12.0760   20.4010 C   0  0  2  0  0  0  0  0  0  0  0  0
   27.6650   11.2930   20.2030 C   0  0  0  0  0  0  0  0  0  0  0  0
   26.3500   12.6570   21.8060 C   0  0  0  0  0  0  0  0  0  0  0  0
   25.4180   12.2320   22.7520 C   0  0  0  0  0  0  0  0  0  0  0  0
   25.3800   12.7420   24.0300 C   0  0  0  0  0  0  0  0  0  0  0  0
   24.3950   12.2270   24.8820 N   0  0  0  0  0  0  0  0  0  0  0  0
   23.0770   12.6280   25.0110 C   0  0  0  0  0  0  0  0  0  0  0  0
   22.5840   13.6100   24.4720 O   0  0  0  0  0  0  0  0  0  0  0  0
   22.2260   11.7480   25.8480 C   0  0  0  0  0  0  0  0  0  0  0  0
   21.5520   10.6860   25.2700 C   0  0  0  0  0  0  0  0  0  0  0  0
   20.7710    9.8980   26.0970 C   0  0  0  0  0  0  0  0  0  0  0  0
   20.6910   10.1860   27.4460 C   0  0  0  0  0  0  0  0  0  0  0  0
   19.9380    9.4550   28.2860 F   0  0  0  0  0  0  0  0  0  0  0  0
   21.3940   11.2670   27.9260 C   0  0  0  0  0  0  0  0  0  0  0  0
   22.1560   12.0530   27.1470 N   0  0  0  0  0  0  0  0  0  0  0  0
   26.3020   13.7010   24.4320 C   0  0  0  0  0  0  0  0  0  0  0  0
   27.2320   14.1370   23.5050 C   0  0  0  0  0  0  0  0  0  0  0  0
   27.2380   13.6390   22.2170 C   0  0  0  0  0  0  0  0  0  0  0  0
   28.1430   14.1060   21.3180 F   0  0  0  0  0  0  0  0  0  0  0  0
   26.2860   13.0940   19.2850 C   0  0  0  0  0  0  0  0  0  0  0  0
   24.7420   13.9670   19.3410 S   0  0  0  0  0  0  0  0  0  0  0  0
   24.4530   14.3850   17.9810 O   0  0  0  0  0  0  0  0  0  0  0  0
   24.6630   14.8280   20.4800 O   0  0  0  0  0  0  0  0  0  0  0  0
   21.7678   13.1521   20.5406 H   0  0  0  0  0  0  0  0  0  0  0  0
   22.1560   13.9812   18.9951 H   0  0  0  0  0  0  0  0  0  0  0  0
   21.7235   12.2378   18.9951 H   0  0  0  0  0  0  0  0  0  0  0  0
   23.3240    9.4720   20.0330 H   0  0  0  0  0  0  0  0  0  0  0  0
   22.1910   10.6920   19.6640 H   0  0  0  0  0  0  0  0  0  0  0  0
   28.0914   11.0364   21.1840 H   0  0  0  0  0  0  0  0  0  0  0  0
   27.4559   10.3706   19.6414 H   0  0  0  0  0  0  0  0  0  0  0  0
   28.3822   11.9096   19.6414 H   0  0  0  0  0  0  0  0  0  0  0  0
   24.6867   11.4614   22.4668 H   0  0  0  0  0  0  0  0  0  0  0  0
   24.6770   11.4850   25.4650 H   0  0  0  0  0  0  0  0  0  0  0  0
   21.6342   10.4763   24.1933 H   0  0  0  0  0  0  0  0  0  0  0  0
   20.2153    9.0445   25.6815 H   0  0  0  0  0  0  0  0  0  0  0  0
   21.3290   11.4989   28.9993 H   0  0  0  0  0  0  0  0  0  0  0  0
   26.2927   14.1014   25.4565 H   0  0  0  0  0  0  0  0  0  0  0  0
   27.9772   14.8911   23.7982 H   0  0  0  0  0  0  0  0  0  0  0  0
   27.1116   13.8128   19.3933 H   0  0  0  0  0  0  0  0  0  0  0  0
   26.3615   12.5693   18.3211 H   0  0  0  0  0  0  0  0  0  0  0  0
  1  2  1  0
  2  3  1  0
  3  4  1  0
  3  5  2  0
  5  6  1  0
  6  7  1  6
  6  8  1  0
  8  9  2  0
  9 10  1  0
 10 11  1  0
 11 12  1  0
 12 13  2  0
 12 14  1  0
 14 15  2  0
 15 16  1  0
 16 17  2  0
 17 18  1  0
 17 19  1  0
 19 20  2  0
 10 21  2  0
 21 22  1  0
 22 23  2  0
 23 24  1  0
  6 25  1  0
 25 26  1  0
 26 27  2  0
 26 28  2  0
 26  2  1  0
 23  8  1  0
 20 14  1  0
  1 29  1  0
  1 30  1  0
  1 31  1  0
  4 32  1  0
  4 33  1  0
  7 34  1  0
  7 35  1  0
  7 36  1  0
  9 37  1  0
 11 38  1  0
 15 39  1  0
 16 40  1  0
 19 41  1  0
 21 42  1  0
 22 43  1  0
 25 44  1  0
 25 45  1  0
M  END
>  <meeko>  (4)
{"is_sidechain": false}

>  <source_group>  (4)
BACE1-457

>  <source_system>  (4)
BACE1_verubecestat

>  <source_run>  (4)
alternate_457_seed20260825_ex32

>  <source_seed>  (4)
20260825

>  <vina_pose_rank>  (4)
4

>  <vina_affinity_kcal_mol>  (4)
-7.8520000000000003

>  <vina_rmsd_to_crystal_angstrom>  (4)
7.1219999999999999

$$$$
BACE1_verubecestat__alternate_457_seed20260825_ex32__pose05
     RDKit          3D

 45 47  0  0  0  0  0  0  0  0999 V2000
   21.0600   12.7460   16.2750 C   0  0  0  0  0  0  0  0  0  0  0  0
   22.2160   12.9260   17.1750 N   0  0  0  0  0  0  0  0  0  0  0  0
   23.4510   12.2670   16.9850 C   0  0  0  0  0  0  0  0  0  0  0  0
   23.5310   11.5660   15.8110 N   0  0  0  0  0  0  0  0  0  0  0  0
   24.4390   12.3280   17.8230 N   0  0  0  0  0  0  0  0  0  0  0  0
   24.3080   13.0000   19.1160 C   0  0  2  0  0  0  0  0  0  0  0  0
   25.7640   13.2390   19.5260 C   0  0  0  0  0  0  0  0  0  0  0  0
   23.6450   12.1110   20.1560 C   0  0  0  0  0  0  0  0  0  0  0  0
   23.2170   10.8230   19.8360 C   0  0  0  0  0  0  0  0  0  0  0  0
   22.6120    9.9990   20.7560 C   0  0  0  0  0  0  0  0  0  0  0  0
   22.2320    8.7270   20.3060 N   0  0  0  0  0  0  0  0  0  0  0  0
   21.4930    8.4010   19.1830 C   0  0  0  0  0  0  0  0  0  0  0  0
   20.9300    9.2060   18.4520 O   0  0  0  0  0  0  0  0  0  0  0  0
   21.4370    6.9550   18.8600 C   0  0  0  0  0  0  0  0  0  0  0  0
   22.5890    6.2840   18.4890 C   0  0  0  0  0  0  0  0  0  0  0  0
   22.4780    4.9360   18.1960 C   0  0  0  0  0  0  0  0  0  0  0  0
   21.2490    4.3120   18.2850 C   0  0  0  0  0  0  0  0  0  0  0  0
   21.0920    3.0080   18.0020 F   0  0  0  0  0  0  0  0  0  0  0  0
   20.1590    5.0650   18.6570 C   0  0  0  0  0  0  0  0  0  0  0  0
   20.2340    6.3760   18.9410 N   0  0  0  0  0  0  0  0  0  0  0  0
   22.4240   10.4240   22.0650 C   0  0  0  0  0  0  0  0  0  0  0  0
   22.8390   11.7010   22.4000 C   0  0  0  0  0  0  0  0  0  0  0  0
   23.4160   12.5290   21.4580 C   0  0  0  0  0  0  0  0  0  0  0  0
   23.7880   13.7880   21.8050 F   0  0  0  0  0  0  0  0  0  0  0  0
   23.6700   14.3590   18.9330 C   0  0  0  0  0  0  0  0  0  0  0  0
   22.0120   14.1960   18.3200 S   0  0  0  0  0  0  0  0  0  0  0  0
   21.7260   15.4070   17.5730 O   0  0  0  0  0  0  0  0  0  0  0  0
   21.1400   13.6330   19.3030 O   0  0  0  0  0  0  0  0  0  0  0  0
   20.1480   12.6040   16.8734 H   0  0  0  0  0  0  0  0  0  0  0  0
   20.9471   13.6374   15.6404 H   0  0  0  0  0  0  0  0  0  0  0  0
   21.2234   11.8625   15.6404 H   0  0  0  0  0  0  0  0  0  0  0  0
   24.3530   11.0730   15.5880 H   0  0  0  0  0  0  0  0  0  0  0  0
   22.7670   11.5570   15.1900 H   0  0  0  0  0  0  0  0  0  0  0  0
   25.8386   13.2512   20.6234 H   0  0  0  0  0  0  0  0  0  0  0  0
   26.3951   12.4324   19.1246 H   0  0  0  0  0  0  0  0  0  0  0  0
   26.1041   14.2050   19.1246 H   0  0  0  0  0  0  0  0  0  0  0  0
   23.3687   10.4529   18.8113 H   0  0  0  0  0  0  0  0  0  0  0  0
   22.5300    7.9690   20.8600 H   0  0  0  0  0  0  0  0  0  0  0  0
   23.5571    6.8029   18.4292 H   0  0  0  0  0  0  0  0  0  0  0  0
   23.3666    4.3628   17.8929 H   0  0  0  0  0  0  0  0  0  0  0  0
   19.1792    4.5698   18.7251 H   0  0  0  0  0  0  0  0  0  0  0  0
   21.9591    9.7651   22.8131 H   0  0  0  0  0  0  0  0  0  0  0  0
   22.7073   12.0612   23.4310 H   0  0  0  0  0  0  0  0  0  0  0  0
   23.6474   14.8807   19.9012 H   0  0  0  0  0  0  0  0  0  0  0  0
   24.2618   14.9324   18.2043 H   0  0  0  0  0  0  0  0  0  0  0  0
  1  2  1  0
  2  3  1  0
  3  4  1  0
  3  5  2  0
  5  6  1  0
  6  7  1  1
  6  8  1  0
  8  9  2  0
  9 10  1  0
 10 11  1  0
 11 12  1  0
 12 13  2  0
 12 14  1  0
 14 15  2  0
 15 16  1  0
 16 17  2  0
 17 18  1  0
 17 19  1  0
 19 20  2  0
 10 21  2  0
 21 22  1  0
 22 23  2  0
 23 24  1  0
  6 25  1  0
 25 26  1  0
 26 27  2  0
 26 28  2  0
 26  2  1  0
 23  8  1  0
 20 14  1  0
  1 29  1  0
  1 30  1  0
  1 31  1  0
  4 32  1  0
  4 33  1  0
  7 34  1  0
  7 35  1  0
  7 36  1  0
  9 37  1  0
 11 38  1  0
 15 39  1  0
 16 40  1  0
 19 41  1  0
 21 42  1  0
 22 43  1  0
 25 44  1  0
 25 45  1  0
M  END
>  <meeko>  (5)
{"is_sidechain": false}

>  <source_group>  (5)
BACE1-457

>  <source_system>  (5)
BACE1_verubecestat

>  <source_run>  (5)
alternate_457_seed20260825_ex32

>  <source_seed>  (5)
20260825

>  <vina_pose_rank>  (5)
5

>  <vina_affinity_kcal_mol>  (5)
-7.6239999999999997

>  <vina_rmsd_to_crystal_angstrom>  (5)
7.2569999999999997

$$$$
BACE1_verubecestat__alternate_457_seed20260825_ex32__pose06
     RDKit          3D

 45 47  0  0  0  0  0  0  0  0999 V2000
   26.7750   10.9530   16.9320 C   0  0  0  0  0  0  0  0  0  0  0  0
   26.7750   11.3870   18.3430 N   0  0  0  0  0  0  0  0  0  0  0  0
   27.3570   10.6280   19.3820 C   0  0  0  0  0  0  0  0  0  0  0  0
   28.0530    9.5320   18.9470 N   0  0  0  0  0  0  0  0  0  0  0  0
   27.2720   10.9390   20.6390 N   0  0  0  0  0  0  0  0  0  0  0  0
   26.4490   12.0560   21.0990 C   0  0  2  0  0  0  0  0  0  0  0  0
   27.0070   12.3410   22.4960 C   0  0  0  0  0  0  0  0  0  0  0  0
   24.9830   11.6710   21.2240 C   0  0  0  0  0  0  0  0  0  0  0  0
   24.5330   10.4120   20.8290 C   0  0  0  0  0  0  0  0  0  0  0  0
   23.2120   10.0380   20.9290 C   0  0  0  0  0  0  0  0  0  0  0  0
   22.8930    8.7430   20.4990 N   0  0  0  0  0  0  0  0  0  0  0  0
   21.9970    8.3640   19.5150 C   0  0  0  0  0  0  0  0  0  0  0  0
   21.2260    9.1170   18.9360 O   0  0  0  0  0  0  0  0  0  0  0  0
   22.0360    6.9280   19.1430 C   0  0  0  0  0  0  0  0  0  0  0  0
   22.7740    6.5180   18.0470 C   0  0  0  0  0  0  0  0  0  0  0  0
   22.7730    5.1680   17.7440 C   0  0  0  0  0  0  0  0  0  0  0  0
   22.0540    4.2870   18.5300 C   0  0  0  0  0  0  0  0  0  0  0  0
   22.0160    2.9690   18.2700 F   0  0  0  0  0  0  0  0  0  0  0  0
   21.3460    4.7920   19.5970 C   0  0  0  0  0  0  0  0  0  0  0  0
   21.3240    6.0980   19.9120 N   0  0  0  0  0  0  0  0  0  0  0  0
   22.2710   10.9120   21.4580 C   0  0  0  0  0  0  0  0  0  0  0  0
   22.6990   12.1670   21.8520 C   0  0  0  0  0  0  0  0  0  0  0  0
   24.0220   12.5410   21.7160 C   0  0  0  0  0  0  0  0  0  0  0  0
   24.4110   13.7890   22.0840 F   0  0  0  0  0  0  0  0  0  0  0  0
   26.7190   13.2830   20.2560 C   0  0  0  0  0  0  0  0  0  0  0  0
   26.2330   13.0050   18.5710 S   0  0  0  0  0  0  0  0  0  0  0  0
   27.0740   13.8590   17.7520 O   0  0  0  0  0  0  0  0  0  0  0  0
   24.8130   12.9120   18.4400 O   0  0  0  0  0  0  0  0  0  0  0  0
   27.8121   10.8452   16.5815 H   0  0  0  0  0  0  0  0  0  0  0  0
   26.2565    9.9867   16.8456 H   0  0  0  0  0  0  0  0  0  0  0  0
   26.2565   11.7037   16.3175 H   0  0  0  0  0  0  0  0  0  0  0  0
   28.4960    8.9400   19.5970 H   0  0  0  0  0  0  0  0  0  0  0  0
   28.1110    9.3360   17.9840 H   0  0  0  0  0  0  0  0  0  0  0  0
   26.2979   11.9788   23.2550 H   0  0  0  0  0  0  0  0  0  0  0  0
   27.9705   11.8246   22.6184 H   0  0  0  0  0  0  0  0  0  0  0  0
   27.1535   13.4243   22.6184 H   0  0  0  0  0  0  0  0  0  0  0  0
   25.2591    9.6922   20.4232 H   0  0  0  0  0  0  0  0  0  0  0  0
   23.3670    8.0100   20.9550 H   0  0  0  0  0  0  0  0  0  0  0  0
   23.3406    7.2386   17.4390 H   0  0  0  0  0  0  0  0  0  0  0  0
   23.3430    4.7966   16.8796 H   0  0  0  0  0  0  0  0  0  0  0  0
   20.7707    4.0929   20.2217 H   0  0  0  0  0  0  0  0  0  0  0  0
   21.2168   10.6150   21.5606 H   0  0  0  0  0  0  0  0  0  0  0  0
   21.9759   12.8771   22.2796 H   0  0  0  0  0  0  0  0  0  0  0  0
   26.1489   14.1321   20.6610 H   0  0  0  0  0  0  0  0  0  0  0  0
   27.7970   13.5003   20.2822 H   0  0  0  0  0  0  0  0  0  0  0  0
  1  2  1  0
  2  3  1  0
  3  4  1  0
  3  5  2  0
  5  6  1  0
  6  7  1  1
  6  8  1  0
  8  9  2  0
  9 10  1  0
 10 11  1  0
 11 12  1  0
 12 13  2  0
 12 14  1  0
 14 15  2  0
 15 16  1  0
 16 17  2  0
 17 18  1  0
 17 19  1  0
 19 20  2  0
 10 21  2  0
 21 22  1  0
 22 23  2  0
 23 24  1  0
  6 25  1  0
 25 26  1  0
 26 27  2  0
 26 28  2  0
 26  2  1  0
 23  8  1  0
 20 14  1  0
  1 29  1  0
  1 30  1  0
  1 31  1  0
  4 32  1  0
  4 33  1  0
  7 34  1  0
  7 35  1  0
  7 36  1  0
  9 37  1  0
 11 38  1  0
 15 39  1  0
 16 40  1  0
 19 41  1  0
 21 42  1  0
 22 43  1  0
 25 44  1  0
 25 45  1  0
M  END
>  <meeko>  (6)
{"is_sidechain": false}

>  <source_group>  (6)
BACE1-457

>  <source_system>  (6)
BACE1_verubecestat

>  <source_run>  (6)
alternate_457_seed20260825_ex32

>  <source_seed>  (6)
20260825

>  <vina_pose_rank>  (6)
6

>  <vina_affinity_kcal_mol>  (6)
-7.4569999999999999

>  <vina_rmsd_to_crystal_angstrom>  (6)
7.0789

$$$$
BACE1_verubecestat__alternate_457_seed20260825_ex32__pose07
     RDKit          3D

 45 47  0  0  0  0  0  0  0  0999 V2000
   24.7380   11.5670   16.3140 C   0  0  0  0  0  0  0  0  0  0  0  0
   23.5510   10.7240   16.0690 N   0  0  0  0  0  0  0  0  0  0  0  0
   22.2310   11.1610   16.3220 C   0  0  0  0  0  0  0  0  0  0  0  0
   22.1400   12.4830   16.6670 N   0  0  0  0  0  0  0  0  0  0  0  0
   21.1860   10.4000   16.2160 N   0  0  0  0  0  0  0  0  0  0  0  0
   21.3040    8.9690   15.9390 C   0  0  2  0  0  0  0  0  0  0  0  0
   19.9030    8.6000   15.4410 C   0  0  0  0  0  0  0  0  0  0  0  0
   21.6050    8.1670   17.1960 C   0  0  0  0  0  0  0  0  0  0  0  0
   21.8320    8.8010   18.4170 C   0  0  0  0  0  0  0  0  0  0  0  0
   22.1090    8.1010   19.5690 C   0  0  0  0  0  0  0  0  0  0  0  0
   22.3140    8.8580   20.7290 N   0  0  0  0  0  0  0  0  0  0  0  0
   23.2610    9.8420   20.9550 C   0  0  0  0  0  0  0  0  0  0  0  0
   24.1780   10.1240   20.1950 O   0  0  0  0  0  0  0  0  0  0  0  0
   23.0890   10.6100   22.2120 C   0  0  0  0  0  0  0  0  0  0  0  0
   22.7320   11.9460   22.1620 C   0  0  0  0  0  0  0  0  0  0  0  0
   22.5870   12.6150   23.3650 C   0  0  0  0  0  0  0  0  0  0  0  0
   22.7950   11.9430   24.5550 C   0  0  0  0  0  0  0  0  0  0  0  0
   22.6750   12.5530   25.7460 F   0  0  0  0  0  0  0  0  0  0  0  0
   23.1520   10.6150   24.5010 C   0  0  0  0  0  0  0  0  0  0  0  0
   23.3060    9.9410   23.3500 N   0  0  0  0  0  0  0  0  0  0  0  0
   22.1520    6.7120   19.5550 C   0  0  0  0  0  0  0  0  0  0  0  0
   21.9330    6.0670   18.3510 C   0  0  0  0  0  0  0  0  0  0  0  0
   21.6870    6.7830   17.1970 C   0  0  0  0  0  0  0  0  0  0  0  0
   21.5050    6.1270   16.0220 F   0  0  0  0  0  0  0  0  0  0  0  0
   22.2580    8.7390   14.7880 C   0  0  0  0  0  0  0  0  0  0  0  0
   23.8970    9.2690   15.2160 S   0  0  0  0  0  0  0  0  0  0  0  0
   24.5490    9.6440   13.9740 O   0  0  0  0  0  0  0  0  0  0  0  0
   24.4820    8.4230   16.2080 O   0  0  0  0  0  0  0  0  0  0  0  0
   24.8925   11.6767   17.3976 H   0  0  0  0  0  0  0  0  0  0  0  0
   25.6230   11.0939   15.8635 H   0  0  0  0  0  0  0  0  0  0  0  0
   24.5829   12.5585   15.8635 H   0  0  0  0  0  0  0  0  0  0  0  0
   21.2610   12.8810   16.8630 H   0  0  0  0  0  0  0  0  0  0  0  0
   22.9530   13.0350   16.7200 H   0  0  0  0  0  0  0  0  0  0  0  0
   19.2417    8.4258   16.3026 H   0  0  0  0  0  0  0  0  0  0  0  0
   19.5019    9.4231   14.8314 H   0  0  0  0  0  0  0  0  0  0  0  0
   19.9594    7.6861   14.8314 H   0  0  0  0  0  0  0  0  0  0  0  0
   21.7881    9.8992   18.4609 H   0  0  0  0  0  0  0  0  0  0  0  0
   21.7060    8.6660   21.4800 H   0  0  0  0  0  0  0  0  0  0  0  0
   22.5695   12.4574   21.2018 H   0  0  0  0  0  0  0  0  0  0  0  0
   22.3070   13.6787   23.3741 H   0  0  0  0  0  0  0  0  0  0  0  0
   23.3194   10.0795   25.4471 H   0  0  0  0  0  0  0  0  0  0  0  0
   22.3542    6.1424   20.4740 H   0  0  0  0  0  0  0  0  0  0  0  0
   21.9552    4.9679   18.3128 H   0  0  0  0  0  0  0  0  0  0  0  0
   22.2775    7.6666   14.5440 H   0  0  0  0  0  0  0  0  0  0  0  0
   21.9131    9.3215   13.9210 H   0  0  0  0  0  0  0  0  0  0  0  0
  1  2  1  0
  2  3  1  0
  3  4  1  0
  3  5  2  0
  5  6  1  0
  6  7  1  6
  6  8  1  0
  8  9  2  0
  9 10  1  0
 10 11  1  0
 11 12  1  0
 12 13  2  0
 12 14  1  0
 14 15  2  0
 15 16  1  0
 16 17  2  0
 17 18  1  0
 17 19  1  0
 19 20  2  0
 10 21  2  0
 21 22  1  0
 22 23  2  0
 23 24  1  0
  6 25  1  0
 25 26  1  0
 26 27  2  0
 26 28  2  0
 26  2  1  0
 23  8  1  0
 20 14  1  0
  1 29  1  0
  1 30  1  0
  1 31  1  0
  4 32  1  0
  4 33  1  0
  7 34  1  0
  7 35  1  0
  7 36  1  0
  9 37  1  0
 11 38  1  0
 15 39  1  0
 16 40  1  0
 19 41  1  0
 21 42  1  0
 22 43  1  0
 25 44  1  0
 25 45  1  0
M  END
>  <meeko>  (7)
{"is_sidechain": false}

>  <source_group>  (7)
BACE1-457

>  <source_system>  (7)
BACE1_verubecestat

>  <source_run>  (7)
alternate_457_seed20260825_ex32

>  <source_seed>  (7)
20260825

>  <vina_pose_rank>  (7)
7

>  <vina_affinity_kcal_mol>  (7)
-7.2190000000000003

>  <vina_rmsd_to_crystal_angstrom>  (7)
6.9874999999999998

$$$$
BACE1_verubecestat__alternate_457_seed20260825_ex32__pose08
     RDKit          3D

 45 47  0  0  0  0  0  0  0  0999 V2000
   28.4930    8.3280   15.2540 C   0  0  0  0  0  0  0  0  0  0  0  0
   27.2240    7.9620   14.5930 N   0  0  0  0  0  0  0  0  0  0  0  0
   26.3030    8.9180   14.1110 C   0  0  0  0  0  0  0  0  0  0  0  0
   26.7580   10.2080   14.1730 N   0  0  0  0  0  0  0  0  0  0  0  0
   25.1380    8.6180   13.6270 N   0  0  0  0  0  0  0  0  0  0  0  0
   24.6250    7.2490   13.6540 C   0  0  2  0  0  0  0  0  0  0  0  0
   23.5110    7.2790   12.6030 C   0  0  0  0  0  0  0  0  0  0  0  0
   24.0170    6.8930   15.0020 C   0  0  0  0  0  0  0  0  0  0  0  0
   23.8370    7.8620   15.9890 C   0  0  0  0  0  0  0  0  0  0  0  0
   23.2930    7.5680   17.2180 C   0  0  0  0  0  0  0  0  0  0  0  0
   23.1640    8.6330   18.1190 N   0  0  0  0  0  0  0  0  0  0  0  0
   22.0130    9.1210   18.7110 C   0  0  0  0  0  0  0  0  0  0  0  0
   20.8740    8.7660   18.4350 O   0  0  0  0  0  0  0  0  0  0  0  0
   22.2280   10.1230   19.7830 C   0  0  0  0  0  0  0  0  0  0  0  0
   22.3680    9.7100   21.0970 C   0  0  0  0  0  0  0  0  0  0  0  0
   22.5640   10.6880   22.0560 C   0  0  0  0  0  0  0  0  0  0  0  0
   22.6170   12.0170   21.6830 C   0  0  0  0  0  0  0  0  0  0  0  0
   22.7960   13.0020   22.5800 F   0  0  0  0  0  0  0  0  0  0  0  0
   22.4600   12.3290   20.3520 C   0  0  0  0  0  0  0  0  0  0  0  0
   22.2630   11.4030   19.3990 N   0  0  0  0  0  0  0  0  0  0  0  0
   22.8780    6.2750   17.5130 C   0  0  0  0  0  0  0  0  0  0  0  0
   23.0520    5.3000   16.5470 C   0  0  0  0  0  0  0  0  0  0  0  0
   23.6290    5.6030   15.3290 C   0  0  0  0  0  0  0  0  0  0  0  0
   23.8160    4.6220   14.4090 F   0  0  0  0  0  0  0  0  0  0  0  0
   25.6810    6.2890   13.1530 C   0  0  0  0  0  0  0  0  0  0  0  0
   27.0870    6.2830   14.2360 S   0  0  0  0  0  0  0  0  0  0  0  0
   28.2340    5.9220   13.4230 O   0  0  0  0  0  0  0  0  0  0  0  0
   26.7780    5.6890   15.4990 O   0  0  0  0  0  0  0  0  0  0  0  0
   28.3621    8.2902   16.3455 H   0  0  0  0  0  0  0  0  0  0  0  0
   29.2799    7.6202   14.9544 H   0  0  0  0  0  0  0  0  0  0  0  0
   28.7821    9.3461   14.9544 H   0  0  0  0  0  0  0  0  0  0  0  0
   26.1880   10.9470   13.8590 H   0  0  0  0  0  0  0  0  0  0  0  0
   27.6560   10.3970   14.5300 H   0  0  0  0  0  0  0  0  0  0  0  0
   22.5331    7.3053   13.1059 H   0  0  0  0  0  0  0  0  0  0  0  0
   23.6242    8.1744   11.9742 H   0  0  0  0  0  0  0  0  0  0  0  0
   23.5758    6.3788   11.9742 H   0  0  0  0  0  0  0  0  0  0  0  0
   24.1407    8.8978   15.7773 H   0  0  0  0  0  0  0  0  0  0  0  0
   24.0000    9.0940   18.3610 H   0  0  0  0  0  0  0  0  0  0  0  0
   22.3251    8.6448   21.3683 H   0  0  0  0  0  0  0  0  0  0  0  0
   22.6774   10.4077   23.1136 H   0  0  0  0  0  0  0  0  0  0  0  0
   22.4976   13.3872   20.0542 H   0  0  0  0  0  0  0  0  0  0  0  0
   22.4246    6.0339   18.4858 H   0  0  0  0  0  0  0  0  0  0  0  0
   22.7264    4.2694   16.7516 H   0  0  0  0  0  0  0  0  0  0  0  0
   25.2556    5.2756   13.1078 H   0  0  0  0  0  0  0  0  0  0  0  0
   26.0062    6.6111   12.1527 H   0  0  0  0  0  0  0  0  0  0  0  0
  1  2  1  0
  2  3  1  0
  3  4  1  0
  3  5  2  0
  5  6  1  0
  6  7  1  6
  6  8  1  0
  8  9  2  0
  9 10  1  0
 10 11  1  0
 11 12  1  0
 12 13  2  0
 12 14  1  0
 14 15  2  0
 15 16  1  0
 16 17  2  0
 17 18  1  0
 17 19  1  0
 19 20  2  0
 10 21  2  0
 21 22  1  0
 22 23  2  0
 23 24  1  0
  6 25  1  0
 25 26  1  0
 26 27  2  0
 26 28  2  0
 26  2  1  0
 23  8  1  0
 20 14  1  0
  1 29  1  0
  1 30  1  0
  1 31  1  0
  4 32  1  0
  4 33  1  0
  7 34  1  0
  7 35  1  0
  7 36  1  0
  9 37  1  0
 11 38  1  0
 15 39  1  0
 16 40  1  0
 19 41  1  0
 21 42  1  0
 22 43  1  0
 25 44  1  0
 25 45  1  0
M  END
>  <meeko>  (8)
{"is_sidechain": false}

>  <source_group>  (8)
BACE1-457

>  <source_system>  (8)
BACE1_verubecestat

>  <source_run>  (8)
alternate_457_seed20260825_ex32

>  <source_seed>  (8)
20260825

>  <vina_pose_rank>  (8)
8

>  <vina_affinity_kcal_mol>  (8)
-7.2089999999999996

>  <vina_rmsd_to_crystal_angstrom>  (8)
8.9825999999999997

$$$$
BACE1_verubecestat__alternate_457_seed20260825_ex32__pose09
     RDKit          3D

 45 47  0  0  0  0  0  0  0  0999 V2000
   27.1260   10.5540   20.0520 C   0  0  0  0  0  0  0  0  0  0  0  0
   26.4770   11.8630   20.2650 N   0  0  0  0  0  0  0  0  0  0  0  0
   27.1260   13.0930   20.0210 C   0  0  0  0  0  0  0  0  0  0  0  0
   28.3530   12.9650   19.4270 N   0  0  0  0  0  0  0  0  0  0  0  0
   26.6110   14.2500   20.3040 N   0  0  0  0  0  0  0  0  0  0  0  0
   25.3440   14.3710   21.0230 C   0  0  2  0  0  0  0  0  0  0  0  0
   24.9110   15.8070   20.7150 C   0  0  0  0  0  0  0  0  0  0  0  0
   25.5240   14.2240   22.5250 C   0  0  0  0  0  0  0  0  0  0  0  0
   24.4910   13.7470   23.3310 C   0  0  0  0  0  0  0  0  0  0  0  0
   24.6250   13.6060   24.6940 C   0  0  0  0  0  0  0  0  0  0  0  0
   23.5120   13.1130   25.3860 N   0  0  0  0  0  0  0  0  0  0  0  0
   23.0990   11.7990   25.5210 C   0  0  0  0  0  0  0  0  0  0  0  0
   23.5870   10.8440   24.9320 O   0  0  0  0  0  0  0  0  0  0  0  0
   22.0010   11.5770   26.4930 C   0  0  0  0  0  0  0  0  0  0  0  0
   20.7680   11.1290   26.0510 C   0  0  0  0  0  0  0  0  0  0  0  0
   19.7780   10.9410   27.0000 C   0  0  0  0  0  0  0  0  0  0  0  0
   20.0450   11.1970   28.3310 C   0  0  0  0  0  0  0  0  0  0  0  0
   19.1130   11.0370   29.2870 F   0  0  0  0  0  0  0  0  0  0  0  0
   21.3010   11.6450   28.6720 C   0  0  0  0  0  0  0  0  0  0  0  0
   22.2790   11.8430   27.7730 N   0  0  0  0  0  0  0  0  0  0  0  0
   25.8260   13.9210   25.3190 C   0  0  0  0  0  0  0  0  0  0  0  0
   26.8610   14.3990   24.5350 C   0  0  0  0  0  0  0  0  0  0  0  0
   26.7010   14.5650   23.1730 C   0  0  0  0  0  0  0  0  0  0  0  0
   27.7230   15.0650   22.4310 F   0  0  0  0  0  0  0  0  0  0  0  0
   24.3090   13.4550   20.4090 C   0  0  0  0  0  0  0  0  0  0  0  0
   24.7890   11.7560   20.5890 S   0  0  0  0  0  0  0  0  0  0  0  0
   24.1840   11.0350   19.4840 O   0  0  0  0  0  0  0  0  0  0  0  0
   24.7290   11.3330   21.9530 O   0  0  0  0  0  0  0  0  0  0  0  0
   27.3536   10.0949   21.0253 H   0  0  0  0  0  0  0  0  0  0  0  0
   26.4493    9.8970   19.4860 H   0  0  0  0  0  0  0  0  0  0  0  0
   28.0586   10.6949   19.4860 H   0  0  0  0  0  0  0  0  0  0  0  0
   28.8840   13.7680   19.2160 H   0  0  0  0  0  0  0  0  0  0  0  0
   28.7050   12.0720   19.2100 H   0  0  0  0  0  0  0  0  0  0  0  0
   24.7471   16.3506   21.6571 H   0  0  0  0  0  0  0  0  0  0  0  0
   25.6973   16.3103   20.1333 H   0  0  0  0  0  0  0  0  0  0  0  0
   23.9775   15.7917   20.1333 H   0  0  0  0  0  0  0  0  0  0  0  0
   23.5348   13.4736   22.8610 H   0  0  0  0  0  0  0  0  0  0  0  0
   22.9520   13.7870   25.8350 H   0  0  0  0  0  0  0  0  0  0  0  0
   20.5819   10.9298   24.9853 H   0  0  0  0  0  0  0  0  0  0  0  0
   18.7815   10.5888   26.6952 H   0  0  0  0  0  0  0  0  0  0  0  0
   21.5139   11.8507   29.7314 H   0  0  0  0  0  0  0  0  0  0  0  0
   25.9499   13.7940   26.4046 H   0  0  0  0  0  0  0  0  0  0  0  0
   27.8244   14.6503   25.0027 H   0  0  0  0  0  0  0  0  0  0  0  0
   23.3435   13.6127   20.9120 H   0  0  0  0  0  0  0  0  0  0  0  0
   24.2233   13.6866   19.3371 H   0  0  0  0  0  0  0  0  0  0  0  0
  1  2  1  0
  2  3  1  0
  3  4  1  0
  3  5  2  0
  5  6  1  0
  6  7  1  1
  6  8  1  0
  8  9  2  0
  9 10  1  0
 10 11  1  0
 11 12  1  0
 12 13  2  0
 12 14  1  0
 14 15  2  0
 15 16  1  0
 16 17  2  0
 17 18  1  0
 17 19  1  0
 19 20  2  0
 10 21  2  0
 21 22  1  0
 22 23  2  0
 23 24  1  0
  6 25  1  0
 25 26  1  0
 26 27  2  0
 26 28  2  0
 26  2  1  0
 23  8  1  0
 20 14  1  0
  1 29  1  0
  1 30  1  0
  1 31  1  0
  4 32  1  0
  4 33  1  0
  7 34  1  0
  7 35  1  0
  7 36  1  0
  9 37  1  0
 11 38  1  0
 15 39  1  0
 16 40  1  0
 19 41  1  0
 21 42  1  0
 22 43  1  0
 25 44  1  0
 25 45  1  0
M  END
>  <meeko>  (9)
{"is_sidechain": false}

>  <source_group>  (9)
BACE1-457

>  <source_system>  (9)
BACE1_verubecestat

>  <source_run>  (9)
alternate_457_seed20260825_ex32

>  <source_seed>  (9)
20260825

>  <vina_pose_rank>  (9)
9

>  <vina_affinity_kcal_mol>  (9)
-7.1429999999999998

>  <vina_rmsd_to_crystal_angstrom>  (9)
7.8076999999999996

$$$$
BACE1_verubecestat__alternate_457_seed20260825_ex32__pose10
     RDKit          3D

 45 47  0  0  0  0  0  0  0  0999 V2000
   22.6320    4.4390   17.5560 C   0  0  0  0  0  0  0  0  0  0  0  0
   22.1320    5.7970   17.2620 N   0  0  0  0  0  0  0  0  0  0  0  0
   22.2170    6.3880   15.9820 C   0  0  0  0  0  0  0  0  0  0  0  0
   22.6630    5.5380   15.0060 N   0  0  0  0  0  0  0  0  0  0  0  0
   21.8830    7.6160   15.7310 N   0  0  0  0  0  0  0  0  0  0  0  0
   21.4990    8.5410   16.7960 C   0  0  2  0  0  0  0  0  0  0  0  0
   20.7610    9.6490   16.0390 C   0  0  0  0  0  0  0  0  0  0  0  0
   22.7090    9.1450   17.4920 C   0  0  0  0  0  0  0  0  0  0  0  0
   22.6470    9.5450   18.8260 C   0  0  0  0  0  0  0  0  0  0  0  0
   23.7260   10.0960   19.4800 C   0  0  0  0  0  0  0  0  0  0  0  0
   23.5310   10.4530   20.8210 N   0  0  0  0  0  0  0  0  0  0  0  0
   22.8630   11.5540   21.3260 C   0  0  0  0  0  0  0  0  0  0  0  0
   22.4320   12.4850   20.6580 O   0  0  0  0  0  0  0  0  0  0  0  0
   22.6450   11.5440   22.7930 C   0  0  0  0  0  0  0  0  0  0  0  0
   22.6360   12.7340   23.4990 C   0  0  0  0  0  0  0  0  0  0  0  0
   22.4310   12.6660   24.8660 C   0  0  0  0  0  0  0  0  0  0  0  0
   22.2400   11.4390   25.4720 C   0  0  0  0  0  0  0  0  0  0  0  0
   22.0460   11.3230   26.7970 F   0  0  0  0  0  0  0  0  0  0  0  0
   22.2710   10.3100   24.6860 C   0  0  0  0  0  0  0  0  0  0  0  0
   22.4740   10.3440   23.3590 N   0  0  0  0  0  0  0  0  0  0  0  0
   24.9400   10.2550   18.8240 C   0  0  0  0  0  0  0  0  0  0  0  0
   25.0190    9.8660   17.4990 C   0  0  0  0  0  0  0  0  0  0  0  0
   23.9200    9.3440   16.8460 C   0  0  0  0  0  0  0  0  0  0  0  0
   24.0150    8.9980   15.5370 F   0  0  0  0  0  0  0  0  0  0  0  0
   20.4920    7.8850   17.7150 C   0  0  0  0  0  0  0  0  0  0  0  0
   21.2140    6.4910   18.5430 S   0  0  0  0  0  0  0  0  0  0  0  0
   20.1270    5.5750   18.8370 O   0  0  0  0  0  0  0  0  0  0  0  0
   22.2030    6.8950   19.4920 O   0  0  0  0  0  0  0  0  0  0  0  0
   22.6848    4.2956   18.6453 H   0  0  0  0  0  0  0  0  0  0  0  0
   21.9490    3.6946   17.1208 H   0  0  0  0  0  0  0  0  0  0  0  0
   23.6347    4.3152   17.1208 H   0  0  0  0  0  0  0  0  0  0  0  0
   22.7560    5.8580   14.0800 H   0  0  0  0  0  0  0  0  0  0  0  0
   22.8910    4.6070   15.2300 H   0  0  0  0  0  0  0  0  0  0  0  0
   20.3001   10.3409   16.7593 H   0  0  0  0  0  0  0  0  0  0  0  0
   21.4739   10.1988   15.4070 H   0  0  0  0  0  0  0  0  0  0  0  0
   19.9789    9.2031   15.4070 H   0  0  0  0  0  0  0  0  0  0  0  0
   21.7028    9.4159   19.3754 H   0  0  0  0  0  0  0  0  0  0  0  0
   23.9190    9.8420   21.4880 H   0  0  0  0  0  0  0  0  0  0  0  0
   22.7863   13.6987   22.9923 H   0  0  0  0  0  0  0  0  0  0  0  0
   22.4201   13.5863   25.4685 H   0  0  0  0  0  0  0  0  0  0  0  0
   22.1223    9.3324   25.1679 H   0  0  0  0  0  0  0  0  0  0  0  0
   25.8129   10.6778   19.3430 H   0  0  0  0  0  0  0  0  0  0  0  0
   25.9706    9.9740   16.9579 H   0  0  0  0  0  0  0  0  0  0  0  0
   20.1570    8.6168   18.4649 H   0  0  0  0  0  0  0  0  0  0  0  0
   19.6389    7.5368   17.1142 H   0  0  0  0  0  0  0  0  0  0  0  0
  1  2  1  0
  2  3  1  0
  3  4  1  0
  3  5  2  0
  5  6  1  0
  6  7  1  6
  6  8  1  0
  8  9  2  0
  9 10  1  0
 10 11  1  0
 11 12  1  0
 12 13  2  0
 12 14  1  0
 14 15  2  0
 15 16  1  0
 16 17  2  0
 17 18  1  0
 17 19  1  0
 19 20  2  0
 10 21  2  0
 21 22  1  0
 22 23  2  0
 23 24  1  0
  6 25  1  0
 25 26  1  0
 26 27  2  0
 26 28  2  0
 26  2  1  0
 23  8  1  0
 20 14  1  0
  1 29  1  0
  1 30  1  0
  1 31  1  0
  4 32  1  0
  4 33  1  0
  7 34  1  0
  7 35  1  0
  7 36  1  0
  9 37  1  0
 11 38  1  0
 15 39  1  0
 16 40  1  0
 19 41  1  0
 21 42  1  0
 22 43  1  0
 25 44  1  0
 25 45  1  0
M  END
>  <meeko>  (10)
{"is_sidechain": false}

>  <source_group>  (10)
BACE1-457

>  <source_system>  (10)
BACE1_verubecestat

>  <source_run>  (10)
alternate_457_seed20260825_ex32

>  <source_seed>  (10)
20260825

>  <vina_pose_rank>  (10)
10

>  <vina_affinity_kcal_mol>  (10)
-7.1150000000000002

>  <vina_rmsd_to_crystal_angstrom>  (10)
6.8049999999999997

$$$$
BACE1_verubecestat__alternate_457_seed20260825_ex32__pose11
     RDKit          3D

 45 47  0  0  0  0  0  0  0  0999 V2000
   20.0840    7.7720   17.4550 C   0  0  0  0  0  0  0  0  0  0  0  0
   21.4310    8.3730   17.3860 N   0  0  0  0  0  0  0  0  0  0  0  0
   22.5460    7.8430   18.0720 C   0  0  0  0  0  0  0  0  0  0  0  0
   22.3040    6.6410   18.6810 N   0  0  0  0  0  0  0  0  0  0  0  0
   23.7090    8.4170   18.1100 N   0  0  0  0  0  0  0  0  0  0  0  0
   23.9300    9.7430   17.5370 C   0  0  2  0  0  0  0  0  0  0  0  0
   25.4520    9.8000   17.3810 C   0  0  0  0  0  0  0  0  0  0  0  0
   23.4910   10.8530   18.4800 C   0  0  0  0  0  0  0  0  0  0  0  0
   23.0760   10.5700   19.7810 C   0  0  0  0  0  0  0  0  0  0  0  0
   22.6710   11.5530   20.6540 C   0  0  0  0  0  0  0  0  0  0  0  0
   22.2810   11.1350   21.9330 N   0  0  0  0  0  0  0  0  0  0  0  0
   22.9700   11.2670   23.1260 C   0  0  0  0  0  0  0  0  0  0  0  0
   24.1210   11.6700   23.2330 O   0  0  0  0  0  0  0  0  0  0  0  0
   22.2010   10.9140   24.3440 C   0  0  0  0  0  0  0  0  0  0  0  0
   21.8460   11.9010   25.2470 C   0  0  0  0  0  0  0  0  0  0  0  0
   21.1310   11.5150   26.3670 C   0  0  0  0  0  0  0  0  0  0  0  0
   20.7970   10.1860   26.5460 C   0  0  0  0  0  0  0  0  0  0  0  0
   20.1110    9.7630   27.6220 F   0  0  0  0  0  0  0  0  0  0  0  0
   21.2000    9.2770   25.5940 C   0  0  0  0  0  0  0  0  0  0  0  0
   21.9000    9.6210   24.5010 N   0  0  0  0  0  0  0  0  0  0  0  0
   22.6850   12.8870   20.2670 C   0  0  0  0  0  0  0  0  0  0  0  0
   23.0900   13.1870   18.9790 C   0  0  0  0  0  0  0  0  0  0  0  0
   23.4630   12.1870   18.1020 C   0  0  0  0  0  0  0  0  0  0  0  0
   23.8290   12.5040   16.8340 F   0  0  0  0  0  0  0  0  0  0  0  0
   23.3390    9.8140   16.1460 C   0  0  0  0  0  0  0  0  0  0  0  0
   21.5760    9.6150   16.2030 S   0  0  0  0  0  0  0  0  0  0  0  0
   21.1820    9.0430   14.9280 O   0  0  0  0  0  0  0  0  0  0  0  0
   20.9380   10.7420   16.8100 O   0  0  0  0  0  0  0  0  0  0  0  0
   19.7938    7.6425   18.5081 H   0  0  0  0  0  0  0  0  0  0  0  0
   19.3614    8.4331   16.9542 H   0  0  0  0  0  0  0  0  0  0  0  0
   20.0933    6.7927   16.9542 H   0  0  0  0  0  0  0  0  0  0  0  0
   23.0210    6.1910   19.1850 H   0  0  0  0  0  0  0  0  0  0  0  0
   21.4130    6.2260   18.6160 H   0  0  0  0  0  0  0  0  0  0  0  0
   25.9221    9.8176   18.3753 H   0  0  0  0  0  0  0  0  0  0  0  0
   25.7973    8.9142   16.8278 H   0  0  0  0  0  0  0  0  0  0  0  0
   25.7301   10.7092   16.8278 H   0  0  0  0  0  0  0  0  0  0  0  0
   23.0724    9.5239   20.1211 H   0  0  0  0  0  0  0  0  0  0  0  0
   21.4040   10.6900   21.9900 H   0  0  0  0  0  0  0  0  0  0  0  0
   22.1219   12.9528   25.0806 H   0  0  0  0  0  0  0  0  0  0  0  0
   20.8291   12.2645   27.1134 H   0  0  0  0  0  0  0  0  0  0  0  0
   20.9360    8.2185   25.7354 H   0  0  0  0  0  0  0  0  0  0  0  0
   22.3827   13.6818   20.9647 H   0  0  0  0  0  0  0  0  0  0  0  0
   23.1154   14.2359   18.6486 H   0  0  0  0  0  0  0  0  0  0  0  0
   23.5780   10.7914   15.7015 H   0  0  0  0  0  0  0  0  0  0  0  0
   23.7671    9.0035   15.5379 H   0  0  0  0  0  0  0  0  0  0  0  0
  1  2  1  0
  2  3  1  0
  3  4  1  0
  3  5  2  0
  5  6  1  0
  6  7  1  6
  6  8  1  0
  8  9  2  0
  9 10  1  0
 10 11  1  0
 11 12  1  0
 12 13  2  0
 12 14  1  0
 14 15  2  0
 15 16  1  0
 16 17  2  0
 17 18  1  0
 17 19  1  0
 19 20  2  0
 10 21  2  0
 21 22  1  0
 22 23  2  0
 23 24  1  0
  6 25  1  0
 25 26  1  0
 26 27  2  0
 26 28  2  0
 26  2  1  0
 23  8  1  0
 20 14  1  0
  1 29  1  0
  1 30  1  0
  1 31  1  0
  4 32  1  0
  4 33  1  0
  7 34  1  0
  7 35  1  0
  7 36  1  0
  9 37  1  0
 11 38  1  0
 15 39  1  0
 16 40  1  0
 19 41  1  0
 21 42  1  0
 22 43  1  0
 25 44  1  0
 25 45  1  0
M  END
>  <meeko>  (11)
{"is_sidechain": false}

>  <source_group>  (11)
BACE1-457

>  <source_system>  (11)
BACE1_verubecestat

>  <source_run>  (11)
alternate_457_seed20260825_ex32

>  <source_seed>  (11)
20260825

>  <vina_pose_rank>  (11)
11

>  <vina_affinity_kcal_mol>  (11)
-6.9699999999999998

>  <vina_rmsd_to_crystal_angstrom>  (11)
6.8230000000000004

$$$$
BACE1_verubecestat__alternate_457_seed20260825_ex32__pose12
     RDKit          3D

 45 47  0  0  0  0  0  0  0  0999 V2000
   21.5270    6.3800   16.5480 C   0  0  0  0  0  0  0  0  0  0  0  0
   22.1120    7.5590   15.8790 N   0  0  0  0  0  0  0  0  0  0  0  0
   23.4480    7.9730   16.0790 C   0  0  0  0  0  0  0  0  0  0  0  0
   24.1940    7.1010   16.8250 N   0  0  0  0  0  0  0  0  0  0  0  0
   23.9460    9.0640   15.5860 N   0  0  0  0  0  0  0  0  0  0  0  0
   23.1170   10.0330   14.8710 C   0  0  2  0  0  0  0  0  0  0  0  0
   24.1460   10.8580   14.0930 C   0  0  0  0  0  0  0  0  0  0  0  0
   22.3670   10.9540   15.8220 C   0  0  0  0  0  0  0  0  0  0  0  0
   22.5280   10.8480   17.2030 C   0  0  0  0  0  0  0  0  0  0  0  0
   21.8600   11.6650   18.0860 C   0  0  0  0  0  0  0  0  0  0  0  0
   22.1130   11.4560   19.4480 N   0  0  0  0  0  0  0  0  0  0  0  0
   22.8000   12.2740   20.3280 C   0  0  0  0  0  0  0  0  0  0  0  0
   23.4230   13.2800   20.0130 O   0  0  0  0  0  0  0  0  0  0  0  0
   22.7170   11.8800   21.7550 C   0  0  0  0  0  0  0  0  0  0  0  0
   22.5570   10.5490   22.0960 C   0  0  0  0  0  0  0  0  0  0  0  0
   22.4840   10.2380   23.4430 C   0  0  0  0  0  0  0  0  0  0  0  0
   22.5750   11.2430   24.3860 C   0  0  0  0  0  0  0  0  0  0  0  0
   22.4990   10.9900   25.7040 F   0  0  0  0  0  0  0  0  0  0  0  0
   22.7280   12.5390   23.9490 C   0  0  0  0  0  0  0  0  0  0  0  0
   22.7960   12.8710   22.6490 N   0  0  0  0  0  0  0  0  0  0  0  0
   21.0050   12.6550   17.6200 C   0  0  0  0  0  0  0  0  0  0  0  0
   20.8300   12.7730   16.2520 C   0  0  0  0  0  0  0  0  0  0  0  0
   21.4820   11.9250   15.3790 C   0  0  0  0  0  0  0  0  0  0  0  0
   21.2710   12.0410   14.0430 F   0  0  0  0  0  0  0  0  0  0  0  0
   22.2530    9.3250   13.8510 C   0  0  0  0  0  0  0  0  0  0  0  0
   21.1100    8.2280   14.6500 S   0  0  0  0  0  0  0  0  0  0  0  0
   20.8240    7.1660   13.7030 O   0  0  0  0  0  0  0  0  0  0  0  0
   20.1100    8.9460   15.3770 O   0  0  0  0  0  0  0  0  0  0  0  0
   21.5906    6.5082   17.6387 H   0  0  0  0  0  0  0  0  0  0  0  0
   20.4727    6.2759   16.2519 H   0  0  0  0  0  0  0  0  0  0  0  0
   22.0818    5.4775   16.2519 H   0  0  0  0  0  0  0  0  0  0  0  0
   25.1380    7.3020   17.0190 H   0  0  0  0  0  0  0  0  0  0  0  0
   23.7870    6.2720   17.1680 H   0  0  0  0  0  0  0  0  0  0  0  0
   24.8035   11.3852   14.8000 H   0  0  0  0  0  0  0  0  0  0  0  0
   24.7487   10.1900   13.4601 H   0  0  0  0  0  0  0  0  0  0  0  0
   23.6250   11.5915   13.4601 H   0  0  0  0  0  0  0  0  0  0  0  0
   23.2130   10.0846   17.6005 H   0  0  0  0  0  0  0  0  0  0  0  0
   21.7560   10.6210   19.8280 H   0  0  0  0  0  0  0  0  0  0  0  0
   22.4903    9.7668   21.3255 H   0  0  0  0  0  0  0  0  0  0  0  0
   22.3539    9.1932   23.7614 H   0  0  0  0  0  0  0  0  0  0  0  0
   22.7979   13.3405   24.6992 H   0  0  0  0  0  0  0  0  0  0  0  0
   20.4821   13.3258   18.3176 H   0  0  0  0  0  0  0  0  0  0  0  0
   20.1629   13.5524   15.8553 H   0  0  0  0  0  0  0  0  0  0  0  0
   21.6911   10.0730   13.2724 H   0  0  0  0  0  0  0  0  0  0  0  0
   22.9018    8.7363   13.1858 H   0  0  0  0  0  0  0  0  0  0  0  0
  1  2  1  0
  2  3  1  0
  3  4  1  0
  3  5  2  0
  5  6  1  0
  6  7  1  6
  6  8  1  0
  8  9  2  0
  9 10  1  0
 10 11  1  0
 11 12  1  0
 12 13  2  0
 12 14  1  0
 14 15  2  0
 15 16  1  0
 16 17  2  0
 17 18  1  0
 17 19  1  0
 19 20  2  0
 10 21  2  0
 21 22  1  0
 22 23  2  0
 23 24  1  0
  6 25  1  0
 25 26  1  0
 26 27  2  0
 26 28  2  0
 26  2  1  0
 23  8  1  0
 20 14  1  0
  1 29  1  0
  1 30  1  0
  1 31  1  0
  4 32  1  0
  4 33  1  0
  7 34  1  0
  7 35  1  0
  7 36  1  0
  9 37  1  0
 11 38  1  0
 15 39  1  0
 16 40  1  0
 19 41  1  0
 21 42  1  0
 22 43  1  0
 25 44  1  0
 25 45  1  0
M  END
>  <meeko>  (12)
{"is_sidechain": false}

>  <source_group>  (12)
BACE1-457

>  <source_system>  (12)
BACE1_verubecestat

>  <source_run>  (12)
alternate_457_seed20260825_ex32

>  <source_seed>  (12)
20260825

>  <vina_pose_rank>  (12)
12

>  <vina_affinity_kcal_mol>  (12)
-6.9059999999999997

>  <vina_rmsd_to_crystal_angstrom>  (12)
7.3819999999999997

$$$$
BACE1_verubecestat__alternate_457_seed20260825_ex32__pose13
     RDKit          3D

 45 47  0  0  0  0  0  0  0  0999 V2000
   23.8970   12.1700   15.2810 C   0  0  0  0  0  0  0  0  0  0  0  0
   23.4020   11.3940   16.4360 N   0  0  0  0  0  0  0  0  0  0  0  0
   24.2260   11.0150   17.5190 C   0  0  0  0  0  0  0  0  0  0  0  0
   25.4820   11.5570   17.4780 N   0  0  0  0  0  0  0  0  0  0  0  0
   23.8360   10.2430   18.4860 N   0  0  0  0  0  0  0  0  0  0  0  0
   22.5250    9.5950   18.4710 C   0  0  2  0  0  0  0  0  0  0  0  0
   22.3150    9.2120   19.9390 C   0  0  0  0  0  0  0  0  0  0  0  0
   22.5250    8.3280   17.6290 C   0  0  0  0  0  0  0  0  0  0  0  0
   23.7000    7.8460   17.0540 C   0  0  0  0  0  0  0  0  0  0  0  0
   23.7290    6.7040   16.2850 C   0  0  0  0  0  0  0  0  0  0  0  0
   24.9750    6.3270   15.7680 N   0  0  0  0  0  0  0  0  0  0  0  0
   25.4910    6.5760   14.5090 C   0  0  0  0  0  0  0  0  0  0  0  0
   24.8690    7.0710   13.5780 O   0  0  0  0  0  0  0  0  0  0  0  0
   26.9230    6.2320   14.3320 C   0  0  0  0  0  0  0  0  0  0  0  0
   27.6090    6.6800   13.2160 C   0  0  0  0  0  0  0  0  0  0  0  0
   28.9420    6.3270   13.1010 C   0  0  0  0  0  0  0  0  0  0  0  0
   29.5380    5.5590   14.0830 C   0  0  0  0  0  0  0  0  0  0  0  0
   30.8260    5.1840   14.0090 F   0  0  0  0  0  0  0  0  0  0  0  0
   28.7710    5.1560   15.1520 C   0  0  0  0  0  0  0  0  0  0  0  0
   27.4740    5.4770   15.2890 N   0  0  0  0  0  0  0  0  0  0  0  0
   22.5690    5.9700   16.0720 C   0  0  0  0  0  0  0  0  0  0  0  0
   21.3920    6.4360   16.6330 C   0  0  0  0  0  0  0  0  0  0  0  0
   21.3730    7.6000   17.3750 C   0  0  0  0  0  0  0  0  0  0  0  0
   20.2000    8.0520   17.8890 F   0  0  0  0  0  0  0  0  0  0  0  0
   21.4520   10.6000   18.1160 C   0  0  0  0  0  0  0  0  0  0  0  0
   21.6900   11.2160   16.4690 S   0  0  0  0  0  0  0  0  0  0  0  0
   21.1180   12.5500   16.4390 O   0  0  0  0  0  0  0  0  0  0  0  0
   21.4320   10.2090   15.4870 O   0  0  0  0  0  0  0  0  0  0  0  0
   24.4561   13.0464   15.6406 H   0  0  0  0  0  0  0  0  0  0  0  0
   24.5590   11.5378   14.6711 H   0  0  0  0  0  0  0  0  0  0  0  0
   23.0446   12.5038   14.6711 H   0  0  0  0  0  0  0  0  0  0  0  0
   26.1300   11.3510   18.1890 H   0  0  0  0  0  0  0  0  0  0  0  0
   25.7370   12.1530   16.7370 H   0  0  0  0  0  0  0  0  0  0  0  0
   22.7426    9.9919   20.5862 H   0  0  0  0  0  0  0  0  0  0  0  0
   21.2382    9.1163   20.1426 H   0  0  0  0  0  0  0  0  0  0  0  0
   22.8133    8.2527   20.1426 H   0  0  0  0  0  0  0  0  0  0  0  0
   24.6371    8.3974   17.2205 H   0  0  0  0  0  0  0  0  0  0  0  0
   25.5580    5.8210   16.3790 H   0  0  0  0  0  0  0  0  0  0  0  0
   27.1130    7.2935   12.4495 H   0  0  0  0  0  0  0  0  0  0  0  0
   29.5262    6.6572   12.2294 H   0  0  0  0  0  0  0  0  0  0  0  0
   29.2431    4.5410   15.9324 H   0  0  0  0  0  0  0  0  0  0  0  0
   22.5850    5.0460   15.4754 H   0  0  0  0  0  0  0  0  0  0  0  0
   20.4597    5.8712   16.4855 H   0  0  0  0  0  0  0  0  0  0  0  0
   20.4670   10.1148   18.1812 H   0  0  0  0  0  0  0  0  0  0  0  0
   21.5097   11.4427   18.8206 H   0  0  0  0  0  0  0  0  0  0  0  0
  1  2  1  0
  2  3  1  0
  3  4  1  0
  3  5  2  0
  5  6  1  0
  6  7  1  1
  6  8  1  0
  8  9  2  0
  9 10  1  0
 10 11  1  0
 11 12  1  0
 12 13  2  0
 12 14  1  0
 14 15  2  0
 15 16  1  0
 16 17  2  0
 17 18  1  0
 17 19  1  0
 19 20  2  0
 10 21  2  0
 21 22  1  0
 22 23  2  0
 23 24  1  0
  6 25  1  0
 25 26  1  0
 26 27  2  0
 26 28  2  0
 26  2  1  0
 23  8  1  0
 20 14  1  0
  1 29  1  0
  1 30  1  0
  1 31  1  0
  4 32  1  0
  4 33  1  0
  7 34  1  0
  7 35  1  0
  7 36  1  0
  9 37  1  0
 11 38  1  0
 15 39  1  0
 16 40  1  0
 19 41  1  0
 21 42  1  0
 22 43  1  0
 25 44  1  0
 25 45  1  0
M  END
>  <meeko>  (13)
{"is_sidechain": false}

>  <source_group>  (13)
BACE1-457

>  <source_system>  (13)
BACE1_verubecestat

>  <source_run>  (13)
alternate_457_seed20260825_ex32

>  <source_seed>  (13)
20260825

>  <vina_pose_rank>  (13)
13

>  <vina_affinity_kcal_mol>  (13)
-6.8789999999999996

>  <vina_rmsd_to_crystal_angstrom>  (13)
7.1159999999999997

$$$$
BACE1_verubecestat__alternate_457_seed20260825_ex32__pose14
     RDKit          3D

 45 47  0  0  0  0  0  0  0  0999 V2000
   28.1200   13.0630   22.5420 C   0  0  0  0  0  0  0  0  0  0  0  0
   26.9500   13.2300   21.6580 N   0  0  0  0  0  0  0  0  0  0  0  0
   26.0620   14.3250   21.7550 C   0  0  0  0  0  0  0  0  0  0  0  0
   26.4660   15.2920   22.6360 N   0  0  0  0  0  0  0  0  0  0  0  0
   24.9710   14.4320   21.0610 N   0  0  0  0  0  0  0  0  0  0  0  0
   24.5010   13.3520   20.1960 C   0  0  2  0  0  0  0  0  0  0  0  0
   23.5180   14.0630   19.2620 C   0  0  0  0  0  0  0  0  0  0  0  0
   23.7520   12.2810   20.9750 C   0  0  0  0  0  0  0  0  0  0  0  0
   23.5030   11.0280   20.4180 C   0  0  0  0  0  0  0  0  0  0  0  0
   22.8250   10.0420   21.0980 C   0  0  0  0  0  0  0  0  0  0  0  0
   22.6440    8.8260   20.4260 N   0  0  0  0  0  0  0  0  0  0  0  0
   21.8830    8.5760   19.2970 C   0  0  0  0  0  0  0  0  0  0  0  0
   21.1240    9.3780   18.7680 O   0  0  0  0  0  0  0  0  0  0  0  0
   22.0610    7.2310   18.6990 C   0  0  0  0  0  0  0  0  0  0  0  0
   22.1810    6.1210   19.5180 C   0  0  0  0  0  0  0  0  0  0  0  0
   22.3470    4.8910   18.9060 C   0  0  0  0  0  0  0  0  0  0  0  0
   22.3830    4.8070   17.5280 C   0  0  0  0  0  0  0  0  0  0  0  0
   22.5510    3.6360   16.8900 F   0  0  0  0  0  0  0  0  0  0  0  0
   22.2600    5.9680   16.7990 C   0  0  0  0  0  0  0  0  0  0  0  0
   22.1040    7.1770   17.3640 N   0  0  0  0  0  0  0  0  0  0  0  0
   22.3790   10.2620   22.3950 C   0  0  0  0  0  0  0  0  0  0  0  0
   22.6140   11.5010   22.9630 C   0  0  0  0  0  0  0  0  0  0  0  0
   23.2670   12.4920   22.2560 C   0  0  0  0  0  0  0  0  0  0  0  0
   23.4600   13.7100   22.8250 F   0  0  0  0  0  0  0  0  0  0  0  0
   25.6380   12.8420   19.3380 C   0  0  0  0  0  0  0  0  0  0  0  0
   26.9080   12.1180   20.3450 S   0  0  0  0  0  0  0  0  0  0  0  0
   28.1530   12.2700   19.6140 O   0  0  0  0  0  0  0  0  0  0  0  0
   26.4720   10.8960   20.9460 O   0  0  0  0  0  0  0  0  0  0  0  0
   27.7957   13.1093   23.5921 H   0  0  0  0  0  0  0  0  0  0  0  0
   28.5912   12.0885   22.3464 H   0  0  0  0  0  0  0  0  0  0  0  0
   28.8451   13.8668   22.3464 H   0  0  0  0  0  0  0  0  0  0  0  0
   25.9130   16.0950   22.7720 H   0  0  0  0  0  0  0  0  0  0  0  0
   27.3100   15.1850   23.1320 H   0  0  0  0  0  0  0  0  0  0  0  0
   22.7700   14.6040   19.8601 H   0  0  0  0  0  0  0  0  0  0  0  0
   24.0653   14.7756   18.6274 H   0  0  0  0  0  0  0  0  0  0  0  0
   23.0125   13.3201   18.6274 H   0  0  0  0  0  0  0  0  0  0  0  0
   23.8610   10.8197   19.3989 H   0  0  0  0  0  0  0  0  0  0  0  0
   23.1190    8.0510   20.8040 H   0  0  0  0  0  0  0  0  0  0  0  0
   22.1457    6.2134   20.6135 H   0  0  0  0  0  0  0  0  0  0  0  0
   22.4501    3.9816   19.5162 H   0  0  0  0  0  0  0  0  0  0  0  0
   22.2909    5.9029   15.7014 H   0  0  0  0  0  0  0  0  0  0  0  0
   21.8540    9.4735   22.9542 H   0  0  0  0  0  0  0  0  0  0  0  0
   22.2766   11.6998   23.9909 H   0  0  0  0  0  0  0  0  0  0  0  0
   25.2525   12.0827   18.6417 H   0  0  0  0  0  0  0  0  0  0  0  0
   26.0675   13.6877   18.7809 H   0  0  0  0  0  0  0  0  0  0  0  0
  1  2  1  0
  2  3  1  0
  3  4  1  0
  3  5  2  0
  5  6  1  0
  6  7  1  6
  6  8  1  0
  8  9  2  0
  9 10  1  0
 10 11  1  0
 11 12  1  0
 12 13  2  0
 12 14  1  0
 14 15  2  0
 15 16  1  0
 16 17  2  0
 17 18  1  0
 17 19  1  0
 19 20  2  0
 10 21  2  0
 21 22  1  0
 22 23  2  0
 23 24  1  0
  6 25  1  0
 25 26  1  0
 26 27  2  0
 26 28  2  0
 26  2  1  0
 23  8  1  0
 20 14  1  0
  1 29  1  0
  1 30  1  0
  1 31  1  0
  4 32  1  0
  4 33  1  0
  7 34  1  0
  7 35  1  0
  7 36  1  0
  9 37  1  0
 11 38  1  0
 15 39  1  0
 16 40  1  0
 19 41  1  0
 21 42  1  0
 22 43  1  0
 25 44  1  0
 25 45  1  0
M  END
>  <meeko>  (14)
{"is_sidechain": false}

>  <source_group>  (14)
BACE1-457

>  <source_system>  (14)
BACE1_verubecestat

>  <source_run>  (14)
alternate_457_seed20260825_ex32

>  <source_seed>  (14)
20260825

>  <vina_pose_rank>  (14)
14

>  <vina_affinity_kcal_mol>  (14)
-6.8680000000000003

>  <vina_rmsd_to_crystal_angstrom>  (14)
6.8456999999999999

$$$$
BACE1_verubecestat__alternate_457_seed20260825_ex32__pose15
     RDKit          3D

 45 47  0  0  0  0  0  0  0  0999 V2000
   21.5870   13.0410   15.2990 C   0  0  0  0  0  0  0  0  0  0  0  0
   22.4730   13.1730   16.4720 N   0  0  0  0  0  0  0  0  0  0  0  0
   23.8400   12.8190   16.4490 C   0  0  0  0  0  0  0  0  0  0  0  0
   24.3070   12.4880   15.2040 N   0  0  0  0  0  0  0  0  0  0  0  0
   24.6060   12.8250   17.4960 N   0  0  0  0  0  0  0  0  0  0  0  0
   24.0760   13.0880   18.8330 C   0  0  2  0  0  0  0  0  0  0  0  0
   25.3280   13.4610   19.6310 C   0  0  0  0  0  0  0  0  0  0  0  0
   23.4510   11.8470   19.4520 C   0  0  0  0  0  0  0  0  0  0  0  0
   23.4850   10.6190   18.7950 C   0  0  0  0  0  0  0  0  0  0  0  0
   22.9250    9.4810   19.3300 C   0  0  0  0  0  0  0  0  0  0  0  0
   23.0310    8.3100   18.5670 N   0  0  0  0  0  0  0  0  0  0  0  0
   22.2200    7.8870   17.5300 C   0  0  0  0  0  0  0  0  0  0  0  0
   21.1750    8.4250   17.1890 O   0  0  0  0  0  0  0  0  0  0  0  0
   22.7150    6.7070   16.7800 C   0  0  0  0  0  0  0  0  0  0  0  0
   22.7440    5.4640   17.3890 C   0  0  0  0  0  0  0  0  0  0  0  0
   23.2170    4.3980   16.6440 C   0  0  0  0  0  0  0  0  0  0  0  0
   23.6340    4.6000   15.3420 C   0  0  0  0  0  0  0  0  0  0  0  0
   24.1090    3.5980   14.5840 F   0  0  0  0  0  0  0  0  0  0  0  0
   23.5720    5.8750   14.8260 C   0  0  0  0  0  0  0  0  0  0  0  0
   23.1240    6.9290   15.5270 N   0  0  0  0  0  0  0  0  0  0  0  0
   22.3150    9.5170   20.5780 C   0  0  0  0  0  0  0  0  0  0  0  0
   22.2690   10.7290   21.2440 C   0  0  0  0  0  0  0  0  0  0  0  0
   22.8060   11.8690   20.6800 C   0  0  0  0  0  0  0  0  0  0  0  0
   22.7220   13.0520   21.3410 F   0  0  0  0  0  0  0  0  0  0  0  0
   23.1850   14.3100   18.8080 C   0  0  0  0  0  0  0  0  0  0  0  0
   21.7610   14.0280   17.7860 S   0  0  0  0  0  0  0  0  0  0  0  0
   21.3490   15.3250   17.2830 O   0  0  0  0  0  0  0  0  0  0  0  0
   20.8720   13.0740   18.3730 O   0  0  0  0  0  0  0  0  0  0  0  0
   20.5517   12.8868   15.6370 H   0  0  0  0  0  0  0  0  0  0  0  0
   21.6422   13.9573   14.6929 H   0  0  0  0  0  0  0  0  0  0  0  0
   21.9069   12.1806   14.6929 H   0  0  0  0  0  0  0  0  0  0  0  0
   25.2490   12.2270   15.0860 H   0  0  0  0  0  0  0  0  0  0  0  0
   23.7010   12.5120   14.4290 H   0  0  0  0  0  0  0  0  0  0  0  0
   25.1098   13.3960   20.7072 H   0  0  0  0  0  0  0  0  0  0  0  0
   26.1434   12.7668   19.3796 H   0  0  0  0  0  0  0  0  0  0  0  0
   25.6305   14.4883   19.3796 H   0  0  0  0  0  0  0  0  0  0  0  0
   23.9771   10.5565   17.8132 H   0  0  0  0  0  0  0  0  0  0  0  0
   23.7790    7.7130   18.8000 H   0  0  0  0  0  0  0  0  0  0  0  0
   22.4038    5.3288   18.4263 H   0  0  0  0  0  0  0  0  0  0  0  0
   23.2610    3.3922   17.0871 H   0  0  0  0  0  0  0  0  0  0  0  0
   23.9053    6.0379   13.7904 H   0  0  0  0  0  0  0  0  0  0  0  0
   21.8817    8.6092   21.0231 H   0  0  0  0  0  0  0  0  0  0  0  0
   21.7981   10.7850   22.2365 H   0  0  0  0  0  0  0  0  0  0  0  0
   22.8549   14.5371   19.8324 H   0  0  0  0  0  0  0  0  0  0  0  0
   23.7552   15.1549   18.3944 H   0  0  0  0  0  0  0  0  0  0  0  0
  1  2  1  0
  2  3  1  0
  3  4  1  0
  3  5  2  0
  5  6  1  0
  6  7  1  1
  6  8  1  0
  8  9  2  0
  9 10  1  0
 10 11  1  0
 11 12  1  0
 12 13  2  0
 12 14  1  0
 14 15  2  0
 15 16  1  0
 16 17  2  0
 17 18  1  0
 17 19  1  0
 19 20  2  0
 10 21  2  0
 21 22  1  0
 22 23  2  0
 23 24  1  0
  6 25  1  0
 25 26  1  0
 26 27  2  0
 26 28  2  0
 26  2  1  0
 23  8  1  0
 20 14  1  0
  1 29  1  0
  1 30  1  0
  1 31  1  0
  4 32  1  0
  4 33  1  0
  7 34  1  0
  7 35  1  0
  7 36  1  0
  9 37  1  0
 11 38  1  0
 15 39  1  0
 16 40  1  0
 19 41  1  0
 21 42  1  0
 22 43  1  0
 25 44  1  0
 25 45  1  0
M  END
>  <meeko>  (15)
{"is_sidechain": false}

>  <source_group>  (15)
BACE1-457

>  <source_system>  (15)
BACE1_verubecestat

>  <source_run>  (15)
alternate_457_seed20260825_ex32

>  <source_seed>  (15)
20260825

>  <vina_pose_rank>  (15)
15

>  <vina_affinity_kcal_mol>  (15)
-6.7949999999999999

>  <vina_rmsd_to_crystal_angstrom>  (15)
7.3869999999999996

$$$$
BACE1_verubecestat__alternate_457_seed20260825_ex32__pose16
     RDKit          3D

 45 47  0  0  0  0  0  0  0  0999 V2000
   26.6830   13.8740   18.4910 C   0  0  0  0  0  0  0  0  0  0  0  0
   26.8280   13.7280   19.9530 N   0  0  0  0  0  0  0  0  0  0  0  0
   27.4880   12.6340   20.5560 C   0  0  0  0  0  0  0  0  0  0  0  0
   28.1130   11.8020   19.6650 N   0  0  0  0  0  0  0  0  0  0  0  0
   27.5310   12.4330   21.8370 N   0  0  0  0  0  0  0  0  0  0  0  0
   26.7820   13.2720   22.7710 C   0  0  2  0  0  0  0  0  0  0  0  0
   27.4770   13.0010   24.1080 C   0  0  0  0  0  0  0  0  0  0  0  0
   25.3260   12.8470   22.8790 C   0  0  0  0  0  0  0  0  0  0  0  0
   24.8200   11.8060   22.1030 C   0  0  0  0  0  0  0  0  0  0  0  0
   23.5070   11.4020   22.1780 C   0  0  0  0  0  0  0  0  0  0  0  0
   23.1270   10.3410   21.3450 N   0  0  0  0  0  0  0  0  0  0  0  0
   22.4910   10.4000   20.1190 C   0  0  0  0  0  0  0  0  0  0  0  0
   22.0310   11.4150   19.6120 O   0  0  0  0  0  0  0  0  0  0  0  0
   22.4140    9.1140   19.3830 C   0  0  0  0  0  0  0  0  0  0  0  0
   23.1940    8.9150   18.2570 C   0  0  0  0  0  0  0  0  0  0  0  0
   23.0810    7.6980   17.6080 C   0  0  0  0  0  0  0  0  0  0  0  0
   22.2160    6.7370   18.0940 C   0  0  0  0  0  0  0  0  0  0  0  0
   22.0660    5.5450   17.4920 F   0  0  0  0  0  0  0  0  0  0  0  0
   21.4770    7.0310   19.2180 C   0  0  0  0  0  0  0  0  0  0  0  0
   21.5610    8.2050   19.8650 N   0  0  0  0  0  0  0  0  0  0  0  0
   22.6310   12.0180   23.0640 C   0  0  0  0  0  0  0  0  0  0  0  0
   23.1150   13.0560   23.8400 C   0  0  0  0  0  0  0  0  0  0  0  0
   24.4270   13.4720   23.7310 C   0  0  0  0  0  0  0  0  0  0  0  0
   24.8690   14.5120   24.4820 F   0  0  0  0  0  0  0  0  0  0  0  0
   27.0010   14.7330   22.4460 C   0  0  0  0  0  0  0  0  0  0  0  0
   26.3500   15.1230   20.8410 S   0  0  0  0  0  0  0  0  0  0  0  0
   27.1300   16.2400   20.3390 O   0  0  0  0  0  0  0  0  0  0  0  0
   24.9220   15.0670   20.8230 O   0  0  0  0  0  0  0  0  0  0  0  0
   25.9233   14.6389   18.2725 H   0  0  0  0  0  0  0  0  0  0  0  0
   27.6461   14.1788   18.0556 H   0  0  0  0  0  0  0  0  0  0  0  0
   26.3716   12.9130   18.0556 H   0  0  0  0  0  0  0  0  0  0  0  0
   28.6000   11.0110   19.9890 H   0  0  0  0  0  0  0  0  0  0  0  0
   28.0740   11.9960   18.7000 H   0  0  0  0  0  0  0  0  0  0  0  0
   26.7997   13.2651   24.9335 H   0  0  0  0  0  0  0  0  0  0  0  0
   27.7391   11.9348   24.1755 H   0  0  0  0  0  0  0  0  0  0  0  0
   28.3916   13.6084   24.1755 H   0  0  0  0  0  0  0  0  0  0  0  0
   25.4948   11.2885   21.4052 H   0  0  0  0  0  0  0  0  0  0  0  0
   23.3420    9.4390   21.6760 H   0  0  0  0  0  0  0  0  0  0  0  0
   23.8781    9.6951   17.8917 H   0  0  0  0  0  0  0  0  0  0  0  0
   23.6788    7.4963   16.7069 H   0  0  0  0  0  0  0  0  0  0  0  0
   20.7850    6.2682   19.6044 H   0  0  0  0  0  0  0  0  0  0  0  0
   21.5842   11.6900   23.1457 H   0  0  0  0  0  0  0  0  0  0  0  0
   22.4450   13.5571   24.5541 H   0  0  0  0  0  0  0  0  0  0  0  0
   26.4936   15.3510   23.2014 H   0  0  0  0  0  0  0  0  0  0  0  0
   28.0818   14.9378   22.4487 H   0  0  0  0  0  0  0  0  0  0  0  0
  1  2  1  0
  2  3  1  0
  3  4  1  0
  3  5  2  0
  5  6  1  0
  6  7  1  1
  6  8  1  0
  8  9  2  0
  9 10  1  0
 10 11  1  0
 11 12  1  0
 12 13  2  0
 12 14  1  0
 14 15  2  0
 15 16  1  0
 16 17  2  0
 17 18  1  0
 17 19  1  0
 19 20  2  0
 10 21  2  0
 21 22  1  0
 22 23  2  0
 23 24  1  0
  6 25  1  0
 25 26  1  0
 26 27  2  0
 26 28  2  0
 26  2  1  0
 23  8  1  0
 20 14  1  0
  1 29  1  0
  1 30  1  0
  1 31  1  0
  4 32  1  0
  4 33  1  0
  7 34  1  0
  7 35  1  0
  7 36  1  0
  9 37  1  0
 11 38  1  0
 15 39  1  0
 16 40  1  0
 19 41  1  0
 21 42  1  0
 22 43  1  0
 25 44  1  0
 25 45  1  0
M  END
>  <meeko>  (16)
{"is_sidechain": false}

>  <source_group>  (16)
BACE1-457

>  <source_system>  (16)
BACE1_verubecestat

>  <source_run>  (16)
alternate_457_seed20260825_ex32

>  <source_seed>  (16)
20260825

>  <vina_pose_rank>  (16)
16

>  <vina_affinity_kcal_mol>  (16)
-6.7649999999999997

>  <vina_rmsd_to_crystal_angstrom>  (16)
6.9214000000000002

$$$$
BACE1_verubecestat__alternate_457_seed20260825_ex32__pose17
     RDKit          3D

 45 47  0  0  0  0  0  0  0  0999 V2000
   21.0940   12.7430   18.0530 C   0  0  0  0  0  0  0  0  0  0  0  0
   22.4150   12.0980   17.9220 N   0  0  0  0  0  0  0  0  0  0  0  0
   22.6200   10.7140   18.1170 C   0  0  0  0  0  0  0  0  0  0  0  0
   21.4640   10.0000   18.2880 N   0  0  0  0  0  0  0  0  0  0  0  0
   23.7880   10.1490   18.1120 N   0  0  0  0  0  0  0  0  0  0  0  0
   25.0190   10.9330   18.0230 C   0  0  2  0  0  0  0  0  0  0  0  0
   26.0550    9.8950   17.5800 C   0  0  0  0  0  0  0  0  0  0  0  0
   25.4360   11.4960   19.3730 C   0  0  0  0  0  0  0  0  0  0  0  0
   24.6920   11.2350   20.5230 C   0  0  0  0  0  0  0  0  0  0  0  0
   25.0440   11.7330   21.7570 C   0  0  0  0  0  0  0  0  0  0  0  0
   24.2120   11.3940   22.8310 N   0  0  0  0  0  0  0  0  0  0  0  0
   23.3470   12.2110   23.5380 C   0  0  0  0  0  0  0  0  0  0  0  0
   23.2650   13.4260   23.4120 O   0  0  0  0  0  0  0  0  0  0  0  0
   22.4450   11.5110   24.4840 C   0  0  0  0  0  0  0  0  0  0  0  0
   22.3560   10.1300   24.4610 C   0  0  0  0  0  0  0  0  0  0  0  0
   21.4970    9.5290   25.3640 C   0  0  0  0  0  0  0  0  0  0  0  0
   20.7720   10.3070   26.2460 C   0  0  0  0  0  0  0  0  0  0  0  0
   19.9200    9.7690   27.1340 F   0  0  0  0  0  0  0  0  0  0  0  0
   20.9240   11.6740   26.1890 C   0  0  0  0  0  0  0  0  0  0  0  0
   21.7450   12.2860   25.3190 N   0  0  0  0  0  0  0  0  0  0  0  0
   26.1860   12.5100   21.9020 C   0  0  0  0  0  0  0  0  0  0  0  0
   26.9350   12.7820   20.7710 C   0  0  0  0  0  0  0  0  0  0  0  0
   26.5530   12.3020   19.5340 C   0  0  0  0  0  0  0  0  0  0  0  0
   27.2890   12.6080   18.4350 F   0  0  0  0  0  0  0  0  0  0  0  0
   24.9080   11.9510   16.9110 C   0  0  0  0  0  0  0  0  0  0  0  0
   23.6280   13.1290   17.2650 S   0  0  0  0  0  0  0  0  0  0  0  0
   23.1380   13.6060   15.9840 O   0  0  0  0  0  0  0  0  0  0  0  0
   23.9810   13.9800   18.3580 O   0  0  0  0  0  0  0  0  0  0  0  0
   20.8485   12.8629   19.1185 H   0  0  0  0  0  0  0  0  0  0  0  0
   21.1185   13.7305   17.5690 H   0  0  0  0  0  0  0  0  0  0  0  0
   20.3304   12.1164   17.5690 H   0  0  0  0  0  0  0  0  0  0  0  0
   21.5040    9.0270   18.4310 H   0  0  0  0  0  0  0  0  0  0  0  0
   20.5940   10.4600   18.2670 H   0  0  0  0  0  0  0  0  0  0  0  0
   26.5148    9.4343   18.4668 H   0  0  0  0  0  0  0  0  0  0  0  0
   25.5613    9.1182   16.9776 H   0  0  0  0  0  0  0  0  0  0  0  0
   26.8327   10.3872   16.9776 H   0  0  0  0  0  0  0  0  0  0  0  0
   23.7914   10.6087   20.4412 H   0  0  0  0  0  0  0  0  0  0  0  0
   24.2460   10.4530   23.1210 H   0  0  0  0  0  0  0  0  0  0  0  0
   22.9464    9.5322   23.7510 H   0  0  0  0  0  0  0  0  0  0  0  0
   21.3916    8.4342   25.3796 H   0  0  0  0  0  0  0  0  0  0  0  0
   20.3458   12.2949   26.8891 H   0  0  0  0  0  0  0  0  0  0  0  0
   26.4860   12.8976   22.8868 H   0  0  0  0  0  0  0  0  0  0  0  0
   27.8479   13.3894   20.8585 H   0  0  0  0  0  0  0  0  0  0  0  0
   25.8671   12.4797   16.8083 H   0  0  0  0  0  0  0  0  0  0  0  0
   24.6588   11.4279   15.9760 H   0  0  0  0  0  0  0  0  0  0  0  0
  1  2  1  0
  2  3  1  0
  3  4  1  0
  3  5  2  0
  5  6  1  0
  6  7  1  6
  6  8  1  0
  8  9  2  0
  9 10  1  0
 10 11  1  0
 11 12  1  0
 12 13  2  0
 12 14  1  0
 14 15  2  0
 15 16  1  0
 16 17  2  0
 17 18  1  0
 17 19  1  0
 19 20  2  0
 10 21  2  0
 21 22  1  0
 22 23  2  0
 23 24  1  0
  6 25  1  0
 25 26  1  0
 26 27  2  0
 26 28  2  0
 26  2  1  0
 23  8  1  0
 20 14  1  0
  1 29  1  0
  1 30  1  0
  1 31  1  0
  4 32  1  0
  4 33  1  0
  7 34  1  0
  7 35  1  0
  7 36  1  0
  9 37  1  0
 11 38  1  0
 15 39  1  0
 16 40  1  0
 19 41  1  0
 21 42  1  0
 22 43  1  0
 25 44  1  0
 25 45  1  0
M  END
>  <meeko>  (17)
{"is_sidechain": false}

>  <source_group>  (17)
BACE1-457

>  <source_system>  (17)
BACE1_verubecestat

>  <source_run>  (17)
alternate_457_seed20260825_ex32

>  <source_seed>  (17)
20260825

>  <vina_pose_rank>  (17)
17

>  <vina_affinity_kcal_mol>  (17)
-6.7489999999999997

>  <vina_rmsd_to_crystal_angstrom>  (17)
6.7324999999999999

$$$$
BACE1_verubecestat__alternate_457_seed20260825_ex32__pose18
     RDKit          3D

 45 47  0  0  0  0  0  0  0  0999 V2000
   25.3500   10.7180   19.8710 C   0  0  0  0  0  0  0  0  0  0  0  0
   24.2020   11.4880   19.3520 N   0  0  0  0  0  0  0  0  0  0  0  0
   22.9740   11.5980   20.0410 C   0  0  0  0  0  0  0  0  0  0  0  0
   22.9920   11.0570   21.2980 N   0  0  0  0  0  0  0  0  0  0  0  0
   21.9220   12.1780   19.5510 N   0  0  0  0  0  0  0  0  0  0  0  0
   21.8850   12.6670   18.1740 C   0  0  2  0  0  0  0  0  0  0  0  0
   20.7110   13.6500   18.1900 C   0  0  0  0  0  0  0  0  0  0  0  0
   21.5800   11.5550   17.1820 C   0  0  0  0  0  0  0  0  0  0  0  0
   21.4940   10.2260   17.5940 C   0  0  0  0  0  0  0  0  0  0  0  0
   21.2220    9.2000   16.7170 C   0  0  0  0  0  0  0  0  0  0  0  0
   21.1610    7.9100   17.2610 N   0  0  0  0  0  0  0  0  0  0  0  0
   21.8570    6.7810   16.8680 C   0  0  0  0  0  0  0  0  0  0  0  0
   22.5630    6.7000   15.8710 O   0  0  0  0  0  0  0  0  0  0  0  0
   21.7350    5.6140   17.7750 C   0  0  0  0  0  0  0  0  0  0  0  0
   22.1140    5.7280   19.1020 C   0  0  0  0  0  0  0  0  0  0  0  0
   21.9810    4.6070   19.9030 C   0  0  0  0  0  0  0  0  0  0  0  0
   21.4810    3.4350   19.3690 C   0  0  0  0  0  0  0  0  0  0  0  0
   21.3430    2.3200   20.1060 F   0  0  0  0  0  0  0  0  0  0  0  0
   21.1380    3.4190   18.0360 C   0  0  0  0  0  0  0  0  0  0  0  0
   21.2610    4.4880   17.2330 N   0  0  0  0  0  0  0  0  0  0  0  0
   20.9980    9.4640   15.3720 C   0  0  0  0  0  0  0  0  0  0  0  0
   21.0830   10.7780   14.9450 C   0  0  0  0  0  0  0  0  0  0  0  0
   21.3880   11.7930   15.8290 C   0  0  0  0  0  0  0  0  0  0  0  0
   21.4940   13.0700   15.3790 F   0  0  0  0  0  0  0  0  0  0  0  0
   23.1310   13.4690   17.8740 C   0  0  0  0  0  0  0  0  0  0  0  0
   24.5760   12.4420   17.9680 S   0  0  0  0  0  0  0  0  0  0  0  0
   25.6800   13.3120   18.3310 O   0  0  0  0  0  0  0  0  0  0  0  0
   24.6190   11.4920   16.9000 O   0  0  0  0  0  0  0  0  0  0  0  0
   25.3323   10.7298   20.9708 H   0  0  0  0  0  0  0  0  0  0  0  0
   25.2862    9.6794   19.5144 H   0  0  0  0  0  0  0  0  0  0  0  0
   26.2868   11.1712   19.5144 H   0  0  0  0  0  0  0  0  0  0  0  0
   22.1820   11.0850   21.8580 H   0  0  0  0  0  0  0  0  0  0  0  0
   23.8150   10.6410   21.6440 H   0  0  0  0  0  0  0  0  0  0  0  0
   20.4382   13.8784   19.2309 H   0  0  0  0  0  0  0  0  0  0  0  0
   21.0023   14.5775   17.6753 H   0  0  0  0  0  0  0  0  0  0  0  0
   19.8491   13.2002   17.6753 H   0  0  0  0  0  0  0  0  0  0  0  0
   21.6489    9.9887   18.6569 H   0  0  0  0  0  0  0  0  0  0  0  0
   20.5450    7.7930   18.0200 H   0  0  0  0  0  0  0  0  0  0  0  0
   22.5060    6.6737   19.5044 H   0  0  0  0  0  0  0  0  0  0  0  0
   22.2729    4.6492   20.9627 H   0  0  0  0  0  0  0  0  0  0  0  0
   20.7441    2.4854   17.6080 H   0  0  0  0  0  0  0  0  0  0  0  0
   20.7602    8.6535   14.6674 H   0  0  0  0  0  0  0  0  0  0  0  0
   20.9049   11.0166   13.8861 H   0  0  0  0  0  0  0  0  0  0  0  0
   23.0534   13.8914   16.8613 H   0  0  0  0  0  0  0  0  0  0  0  0
   23.2207   14.2746   18.6176 H   0  0  0  0  0  0  0  0  0  0  0  0
  1  2  1  0
  2  3  1  0
  3  4  1  0
  3  5  2  0
  5  6  1  0
  6  7  1  1
  6  8  1  0
  8  9  2  0
  9 10  1  0
 10 11  1  0
 11 12  1  0
 12 13  2  0
 12 14  1  0
 14 15  2  0
 15 16  1  0
 16 17  2  0
 17 18  1  0
 17 19  1  0
 19 20  2  0
 10 21  2  0
 21 22  1  0
 22 23  2  0
 23 24  1  0
  6 25  1  0
 25 26  1  0
 26 27  2  0
 26 28  2  0
 26  2  1  0
 23  8  1  0
 20 14  1  0
  1 29  1  0
  1 30  1  0
  1 31  1  0
  4 32  1  0
  4 33  1  0
  7 34  1  0
  7 35  1  0
  7 36  1  0
  9 37  1  0
 11 38  1  0
 15 39  1  0
 16 40  1  0
 19 41  1  0
 21 42  1  0
 22 43  1  0
 25 44  1  0
 25 45  1  0
M  END
>  <meeko>  (18)
{"is_sidechain": false}

>  <source_group>  (18)
BACE1-457

>  <source_system>  (18)
BACE1_verubecestat

>  <source_run>  (18)
alternate_457_seed20260825_ex32

>  <source_seed>  (18)
20260825

>  <vina_pose_rank>  (18)
18

>  <vina_affinity_kcal_mol>  (18)
-6.7320000000000002

>  <vina_rmsd_to_crystal_angstrom>  (18)
7.1790000000000003

$$$$
BACE1_verubecestat__alternate_457_seed20260825_ex32__pose19
     RDKit          3D

 45 47  0  0  0  0  0  0  0  0999 V2000
   28.3110   10.7830   18.6670 C   0  0  0  0  0  0  0  0  0  0  0  0
   27.2920   11.5230   19.4380 N   0  0  0  0  0  0  0  0  0  0  0  0
   26.8350   11.1070   20.7080 C   0  0  0  0  0  0  0  0  0  0  0  0
   27.5280   10.0460   21.2270 N   0  0  0  0  0  0  0  0  0  0  0  0
   25.8660   11.6820   21.3500 N   0  0  0  0  0  0  0  0  0  0  0  0
   25.0730   12.7520   20.7470 C   0  0  2  0  0  0  0  0  0  0  0  0
   24.4190   13.4200   21.9590 C   0  0  0  0  0  0  0  0  0  0  0  0
   23.9810   12.2090   19.8380 C   0  0  0  0  0  0  0  0  0  0  0  0
   23.8050   10.8370   19.6630 C   0  0  0  0  0  0  0  0  0  0  0  0
   22.8280   10.3180   18.8450 C   0  0  0  0  0  0  0  0  0  0  0  0
   22.7570    8.9210   18.7600 N   0  0  0  0  0  0  0  0  0  0  0  0
   22.0150    8.0520   19.5400 C   0  0  0  0  0  0  0  0  0  0  0  0
   21.3830    8.3670   20.5400 O   0  0  0  0  0  0  0  0  0  0  0  0
   21.9860    6.6460   19.0680 C   0  0  0  0  0  0  0  0  0  0  0  0
   22.7660    6.2620   17.9920 C   0  0  0  0  0  0  0  0  0  0  0  0
   22.6990    4.9390   17.5930 C   0  0  0  0  0  0  0  0  0  0  0  0
   21.8750    4.0580   18.2680 C   0  0  0  0  0  0  0  0  0  0  0  0
   21.7700    2.7670   17.9110 F   0  0  0  0  0  0  0  0  0  0  0  0
   21.1320    4.5360   19.3230 C   0  0  0  0  0  0  0  0  0  0  0  0
   21.1730    5.8160   19.7300 N   0  0  0  0  0  0  0  0  0  0  0  0
   21.9540   11.1610   18.1710 C   0  0  0  0  0  0  0  0  0  0  0  0
   22.1160   12.5260   18.3290 C   0  0  0  0  0  0  0  0  0  0  0  0
   23.1210   13.0340   19.1280 C   0  0  0  0  0  0  0  0  0  0  0  0
   23.2770   14.3770   19.2430 F   0  0  0  0  0  0  0  0  0  0  0  0
   25.9830   13.7790   20.1120 C   0  0  0  0  0  0  0  0  0  0  0  0
   26.9000   13.0610   18.7720 S   0  0  0  0  0  0  0  0  0  0  0  0
   28.1370   13.8130   18.6670 O   0  0  0  0  0  0  0  0  0  0  0  0
   26.0540   12.7480   17.6620 O   0  0  0  0  0  0  0  0  0  0  0  0
   29.0022   10.2811   19.3600 H   0  0  0  0  0  0  0  0  0  0  0  0
   27.8172   10.0316   18.0333 H   0  0  0  0  0  0  0  0  0  0  0  0
   28.8727   11.4851   18.0333 H   0  0  0  0  0  0  0  0  0  0  0  0
   27.2840    9.6840   22.1100 H   0  0  0  0  0  0  0  0  0  0  0  0
   28.2700    9.6460   20.7190 H   0  0  0  0  0  0  0  0  0  0  0  0
   24.8368   12.9932   22.8827 H   0  0  0  0  0  0  0  0  0  0  0  0
   24.6169   14.5017   21.9326 H   0  0  0  0  0  0  0  0  0  0  0  0
   23.3333   13.2451   21.9326 H   0  0  0  0  0  0  0  0  0  0  0  0
   24.4713   10.1445   20.1982 H   0  0  0  0  0  0  0  0  0  0  0  0
   23.3040    8.5060   18.0550 H   0  0  0  0  0  0  0  0  0  0  0  0
   23.4156    6.9820   17.4728 H   0  0  0  0  0  0  0  0  0  0  0  0
   23.3000    4.5890   16.7407 H   0  0  0  0  0  0  0  0  0  0  0  0
   20.4730    3.8369   19.8588 H   0  0  0  0  0  0  0  0  0  0  0  0
   21.1568   10.7556   17.5307 H   0  0  0  0  0  0  0  0  0  0  0  0
   21.4344   13.2164   17.8106 H   0  0  0  0  0  0  0  0  0  0  0  0
   25.3754   14.6119   19.7285 H   0  0  0  0  0  0  0  0  0  0  0  0
   26.6915   14.1417   20.8713 H   0  0  0  0  0  0  0  0  0  0  0  0
  1  2  1  0
  2  3  1  0
  3  4  1  0
  3  5  2  0
  5  6  1  0
  6  7  1  1
  6  8  1  0
  8  9  2  0
  9 10  1  0
 10 11  1  0
 11 12  1  0
 12 13  2  0
 12 14  1  0
 14 15  2  0
 15 16  1  0
 16 17  2  0
 17 18  1  0
 17 19  1  0
 19 20  2  0
 10 21  2  0
 21 22  1  0
 22 23  2  0
 23 24  1  0
  6 25  1  0
 25 26  1  0
 26 27  2  0
 26 28  2  0
 26  2  1  0
 23  8  1  0
 20 14  1  0
  1 29  1  0
  1 30  1  0
  1 31  1  0
  4 32  1  0
  4 33  1  0
  7 34  1  0
  7 35  1  0
  7 36  1  0
  9 37  1  0
 11 38  1  0
 15 39  1  0
 16 40  1  0
 19 41  1  0
 21 42  1  0
 22 43  1  0
 25 44  1  0
 25 45  1  0
M  END
>  <meeko>  (19)
{"is_sidechain": false}

>  <source_group>  (19)
BACE1-457

>  <source_system>  (19)
BACE1_verubecestat

>  <source_run>  (19)
alternate_457_seed20260825_ex32

>  <source_seed>  (19)
20260825

>  <vina_pose_rank>  (19)
19

>  <vina_affinity_kcal_mol>  (19)
-6.6449999999999996

>  <vina_rmsd_to_crystal_angstrom>  (19)
6.9527000000000001

$$$$
BACE1_verubecestat__alternate_457_seed20260825_ex32__pose20
     RDKit          3D

 45 47  0  0  0  0  0  0  0  0999 V2000
   25.6760   10.9270   16.2520 C   0  0  0  0  0  0  0  0  0  0  0  0
   24.3330   10.3630   16.0130 N   0  0  0  0  0  0  0  0  0  0  0  0
   23.1570   11.1450   16.0210 C   0  0  0  0  0  0  0  0  0  0  0  0
   23.3860   12.4910   16.1180 N   0  0  0  0  0  0  0  0  0  0  0  0
   21.9610   10.6510   15.9220 N   0  0  0  0  0  0  0  0  0  0  0  0
   21.7240    9.2090   15.9140 C   0  0  2  0  0  0  0  0  0  0  0  0
   20.3170    9.0960   15.3200 C   0  0  0  0  0  0  0  0  0  0  0  0
   21.7120    8.6250   17.3190 C   0  0  0  0  0  0  0  0  0  0  0  0
   21.9490    9.4280   18.4340 C   0  0  0  0  0  0  0  0  0  0  0  0
   21.9470    8.9270   19.7160 C   0  0  0  0  0  0  0  0  0  0  0  0
   22.1960    9.8410   20.7480 N   0  0  0  0  0  0  0  0  0  0  0  0
   23.3470    9.9900   21.5010 C   0  0  0  0  0  0  0  0  0  0  0  0
   24.3120    9.2380   21.4680 O   0  0  0  0  0  0  0  0  0  0  0  0
   23.3800   11.1870   22.3760 C   0  0  0  0  0  0  0  0  0  0  0  0
   22.5290   11.2710   23.4650 C   0  0  0  0  0  0  0  0  0  0  0  0
   22.6020   12.4110   24.2460 C   0  0  0  0  0  0  0  0  0  0  0  0
   23.5030   13.4080   23.9260 C   0  0  0  0  0  0  0  0  0  0  0  0
   23.6020   14.5370   24.6490 F   0  0  0  0  0  0  0  0  0  0  0  0
   24.3030   13.2350   22.8200 C   0  0  0  0  0  0  0  0  0  0  0  0
   24.2520   12.1430   22.0390 N   0  0  0  0  0  0  0  0  0  0  0  0
   21.6810    7.5820   19.9450 C   0  0  0  0  0  0  0  0  0  0  0  0
   21.4480    6.7700   18.8490 C   0  0  0  0  0  0  0  0  0  0  0  0
   21.4850    7.2800   17.5670 C   0  0  0  0  0  0  0  0  0  0  0  0
   21.2810    6.4560   16.5070 F   0  0  0  0  0  0  0  0  0  0  0  0
   22.6700    8.5320   14.9470 C   0  0  0  0  0  0  0  0  0  0  0  0
   24.3530    8.7270   15.4760 S   0  0  0  0  0  0  0  0  0  0  0  0
   25.1710    8.6780   14.2780 O   0  0  0  0  0  0  0  0  0  0  0  0
   24.6230    7.9800   16.6640 O   0  0  0  0  0  0  0  0  0  0  0  0
   25.8548   11.0021   17.3348 H   0  0  0  0  0  0  0  0  0  0  0  0
   26.4348   10.2715   15.7997 H   0  0  0  0  0  0  0  0  0  0  0  0
   25.7393   11.9277   15.7997 H   0  0  0  0  0  0  0  0  0  0  0  0
   22.6280   13.1200   16.1310 H   0  0  0  0  0  0  0  0  0  0  0  0
   24.3080   12.8310   16.1740 H   0  0  0  0  0  0  0  0  0  0  0  0
   19.5792    9.0367   16.1337 H   0  0  0  0  0  0  0  0  0  0  0  0
   20.1087    9.9803   14.6998 H   0  0  0  0  0  0  0  0  0  0  0  0
   20.2525    8.1898   14.6998 H   0  0  0  0  0  0  0  0  0  0  0  0
   22.1445   10.5000   18.2837 H   0  0  0  0  0  0  0  0  0  0  0  0
   21.4580   10.4560   20.9640 H   0  0  0  0  0  0  0  0  0  0  0  0
   21.8217   10.4621   23.7004 H   0  0  0  0  0  0  0  0  0  0  0  0
   21.9437   12.5231   25.1201 H   0  0  0  0  0  0  0  0  0  0  0  0
   25.0191   14.0294   22.5627 H   0  0  0  0  0  0  0  0  0  0  0  0
   21.6565    7.1753   20.9668 H   0  0  0  0  0  0  0  0  0  0  0  0
   21.2301    5.7027   19.0017 H   0  0  0  0  0  0  0  0  0  0  0  0
   22.4291    7.4599   14.8970 H   0  0  0  0  0  0  0  0  0  0  0  0
   22.5546    8.9956   13.9562 H   0  0  0  0  0  0  0  0  0  0  0  0
  1  2  1  0
  2  3  1  0
  3  4  1  0
  3  5  2  0
  5  6  1  0
  6  7  1  6
  6  8  1  0
  8  9  2  0
  9 10  1  0
 10 11  1  0
 11 12  1  0
 12 13  2  0
 12 14  1  0
 14 15  2  0
 15 16  1  0
 16 17  2  0
 17 18  1  0
 17 19  1  0
 19 20  2  0
 10 21  2  0
 21 22  1  0
 22 23  2  0
 23 24  1  0
  6 25  1  0
 25 26  1  0
 26 27  2  0
 26 28  2  0
 26  2  1  0
 23  8  1  0
 20 14  1  0
  1 29  1  0
  1 30  1  0
  1 31  1  0
  4 32  1  0
  4 33  1  0
  7 34  1  0
  7 35  1  0
  7 36  1  0
  9 37  1  0
 11 38  1  0
 15 39  1  0
 16 40  1  0
 19 41  1  0
 21 42  1  0
 22 43  1  0
 25 44  1  0
 25 45  1  0
M  END
>  <meeko>  (20)
{"is_sidechain": false}

>  <source_group>  (20)
BACE1-457

>  <source_system>  (20)
BACE1_verubecestat

>  <source_run>  (20)
alternate_457_seed20260825_ex32

>  <source_seed>  (20)
20260825

>  <vina_pose_rank>  (20)
20

>  <vina_affinity_kcal_mol>  (20)
-6.5819999999999999

>  <vina_rmsd_to_crystal_angstrom>  (20)
7.0358000000000001

$$$$
