BACE1_verubecestat__alternate_457_seed20260825_ex32__pose01


 31 33  0  0  0  0  0  0  0  0999 V2000
   23.9840   12.5590   20.7510 C   0  0  0  0  0  0  0  0  0  0  0  0
   23.4690   12.3010   22.0210 C   0  0  0  0  0  0  0  0  0  0  0  0
   22.6550   11.2220   22.2800 C   0  0  0  0  0  0  0  0  0  0  0  0
   22.2960   10.3510   21.2590 C   0  0  0  0  0  0  0  0  0  0  0  0
   22.8000   10.5900   19.9930 C   0  0  0  0  0  0  0  0  0  0  0  0
   23.6420   11.6580   19.7550 C   0  0  0  0  0  0  0  0  0  0  0  0
   24.1470   11.8530   18.5090 F   0  0  0  0  0  0  0  0  0  0  0  0
   27.7810   12.7070   23.5290 C   0  0  0  0  0  0  0  0  0  0  0  0
   26.8740   13.1510   22.4510 N   0  0  0  0  0  0  0  0  0  0  0  0
   25.9660   14.2230   22.6010 C   0  0  0  0  0  0  0  0  0  0  0  0
   26.1070   14.9100   23.7770 N   0  0  0  0  0  0  0  0  0  0  0  0
   25.0890   14.5560   21.7060 N   0  0  0  0  0  0  0  0  0  0  0  0
   24.8840   13.7590   20.4970 C   0  0  0  0  0  0  0  0  0  0  0  0
   24.1590   14.7320   19.5640 C   0  0  0  0  0  0  0  0  0  0  0  0
   26.2150   13.4370   19.8550 C   0  0  0  0  0  0  0  0  0  0  0  0
   27.1980   12.4190   20.9270 S   0  0  0  0  0  0  0  0  0  0  0  0
   28.5860   12.6970   20.6030 O   0  0  0  0  0  0  0  0  0  0  0  0
   26.6510   11.1050   21.0550 O   0  0  0  0  0  0  0  0  0  0  0  0
   25.5190   15.6750   23.9740 H   0  0  0  0  0  0  0  0  0  0  0  0
   26.7970   14.6390   24.4260 H   0  0  0  0  0  0  0  0  0  0  0  0
   22.2040   11.0790   23.5990 N   0  0  0  0  0  0  0  0  0  0  0  0
   22.9160   11.2490   24.7720 C   0  0  0  0  0  0  0  0  0  0  0  0
   24.1240   11.4350   24.8420 O   0  0  0  0  0  0  0  0  0  0  0  0
   21.2580   10.8240   23.7030 H   0  0  0  0  0  0  0  0  0  0  0  0
   22.1050   11.2330   26.0140 C   0  0  0  0  0  0  0  0  0  0  0  0
   20.8920   10.5680   26.0380 C   0  0  0  0  0  0  0  0  0  0  0  0
   20.1760   10.5870   27.2210 C   0  0  0  0  0  0  0  0  0  0  0  0
   20.6830   11.2510   28.3220 C   0  0  0  0  0  0  0  0  0  0  0  0
   20.0190   11.3050   29.4890 F   0  0  0  0  0  0  0  0  0  0  0  0
   21.8960   11.8890   28.1980 C   0  0  0  0  0  0  0  0  0  0  0  0
   22.6110   11.8930   27.0610 N   0  0  0  0  0  0  0  0  0  0  0  0
  8  9  1  0
  9 10  1  0
 10 11  1  0
 10 12  2  0
 12 13  1  0
 13 14  1  0
 13  1  1  0
  1  2  2  0
  2  3  1  0
  3 21  1  0
 21 22  1  0
 22 23  2  0
 22 25  1  0
 25 26  2  0
 26 27  1  0
 27 28  2  0
 28 29  1  0
 28 30  1  0
 30 31  2  0
  3  4  2  0
  4  5  1  0
  5  6  2  0
  6  7  1  0
 13 15  1  0
 15 16  1  0
 16 17  2  0
 16 18  2  0
 16  9  1  0
  6  1  1  0
 31 25  1  0
 11 19  1  0
 11 20  1  0
 21 24  1  0
M  END
> <meeko>
{"is_sidechain": false}

> <source_group>
BACE1-457

> <source_system>
BACE1_verubecestat

> <source_run>
alternate_457_seed20260825_ex32

> <source_seed>
20260825

> <vina_pose_rank>
1

> <vina_affinity_kcal_mol>
-8.3049999999999997

> <vina_rmsd_to_crystal_angstrom>
6.9968000000000004

> <minimizedAffinity>
-8.30781

> <CNNscore>
0.0403003767

> <CNNaffinity>
4.0953607559

> <CNN_VS>
0.1650445759

> <CNNaffinity_variance>
1.4245103598

$$$$
BACE1_verubecestat__alternate_457_seed20260825_ex32__pose02


 31 33  0  0  0  0  0  0  0  0999 V2000
   25.3610   13.3650   20.5770 C   0  0  0  0  0  0  0  0  0  0  0  0
   24.7560   12.8010   21.6990 C   0  0  0  0  0  0  0  0  0  0  0  0
   23.4320   12.4240   21.7100 C   0  0  0  0  0  0  0  0  0  0  0  0
   22.6360   12.6170   20.5880 C   0  0  0  0  0  0  0  0  0  0  0  0
   23.2210   13.1720   19.4640 C   0  0  0  0  0  0  0  0  0  0  0  0
   24.5580   13.5160   19.4570 C   0  0  0  0  0  0  0  0  0  0  0  0
   25.1150   14.0320   18.3310 F   0  0  0  0  0  0  0  0  0  0  0  0
   28.3250    9.7380   21.0340 C   0  0  0  0  0  0  0  0  0  0  0  0
   27.9310   11.1500   20.8580 N   0  0  0  0  0  0  0  0  0  0  0  0
   27.9530   12.0920   21.9110 C   0  0  0  0  0  0  0  0  0  0  0  0
   28.5140   11.6200   23.0670 N   0  0  0  0  0  0  0  0  0  0  0  0
   27.5090   13.3060   21.8020 N   0  0  0  0  0  0  0  0  0  0  0  0
   26.8270   13.7690   20.5940 C   0  0  0  0  0  0  0  0  0  0  0  0
   26.9180   15.2930   20.7120 C   0  0  0  0  0  0  0  0  0  0  0  0
   27.6160   13.3710   19.3670 C   0  0  0  0  0  0  0  0  0  0  0  0
   27.6900   11.6040   19.2150 S   0  0  0  0  0  0  0  0  0  0  0  0
   28.9180   11.3010   18.5010 O   0  0  0  0  0  0  0  0  0  0  0  0
   26.4140   11.0480   18.8910 O   0  0  0  0  0  0  0  0  0  0  0  0
   28.5750   12.2030   23.8580 H   0  0  0  0  0  0  0  0  0  0  0  0
   28.8570   10.6980   23.1080 H   0  0  0  0  0  0  0  0  0  0  0  0
   22.9470   11.8720   22.9030 N   0  0  0  0  0  0  0  0  0  0  0  0
   22.4420   12.5320   24.0100 C   0  0  0  0  0  0  0  0  0  0  0  0
   22.4590   13.7450   24.1750 O   0  0  0  0  0  0  0  0  0  0  0  0
   22.9680   10.8890   22.9610 H   0  0  0  0  0  0  0  0  0  0  0  0
   21.8110   11.6620   25.0320 C   0  0  0  0  0  0  0  0  0  0  0  0
   21.9240   10.2860   24.9340 C   0  0  0  0  0  0  0  0  0  0  0  0
   21.3140    9.5230   25.9140 C   0  0  0  0  0  0  0  0  0  0  0  0
   20.6290   10.1430   26.9410 C   0  0  0  0  0  0  0  0  0  0  0  0
   20.0130    9.4430   27.9100 F   0  0  0  0  0  0  0  0  0  0  0  0
   20.5680   11.5180   26.9500 C   0  0  0  0  0  0  0  0  0  0  0  0
   21.1440   12.2850   26.0100 N   0  0  0  0  0  0  0  0  0  0  0  0
  8  9  1  0
  9 10  1  0
 10 11  1  0
 10 12  2  0
 12 13  1  0
 13 14  1  0
 13  1  1  0
  1  2  2  0
  2  3  1  0
  3 21  1  0
 21 22  1  0
 22 23  2  0
 22 25  1  0
 25 26  2  0
 26 27  1  0
 27 28  2  0
 28 29  1  0
 28 30  1  0
 30 31  2  0
  3  4  2  0
  4  5  1  0
  5  6  2  0
  6  7  1  0
 13 15  1  0
 15 16  1  0
 16 17  2  0
 16 18  2  0
 16  9  1  0
  6  1  1  0
 31 25  1  0
 11 19  1  0
 11 20  1  0
 21 24  1  0
M  END
> <meeko>
{"is_sidechain": false}

> <source_group>
BACE1-457

> <source_system>
BACE1_verubecestat

> <source_run>
alternate_457_seed20260825_ex32

> <source_seed>
20260825

> <vina_pose_rank>
2

> <vina_affinity_kcal_mol>
-7.9889999999999999

> <vina_rmsd_to_crystal_angstrom>
7.3166000000000002

> <minimizedAffinity>
-7.87064

> <CNNscore>
0.0437764265

> <CNNaffinity>
4.4998083115

> <CNN_VS>
0.1969855279

> <CNNaffinity_variance>
0.7548291087

$$$$
BACE1_verubecestat__alternate_457_seed20260825_ex32__pose03


 31 33  0  0  0  0  0  0  0  0999 V2000
   22.5800    8.8150   16.6870 C   0  0  0  0  0  0  0  0  0  0  0  0
   23.8040    8.3020   16.2600 C   0  0  0  0  0  0  0  0  0  0  0  0
   24.9710    9.0280   16.3310 C   0  0  0  0  0  0  0  0  0  0  0  0
   24.9620   10.3280   16.8190 C   0  0  0  0  0  0  0  0  0  0  0  0
   23.7570   10.8530   17.2510 C   0  0  0  0  0  0  0  0  0  0  0  0
   22.5990   10.1010   17.2040 C   0  0  0  0  0  0  0  0  0  0  0  0
   21.4340   10.6290   17.6610 F   0  0  0  0  0  0  0  0  0  0  0  0
   22.7370    4.8220   19.1740 C   0  0  0  0  0  0  0  0  0  0  0  0
   22.1340    5.8520   18.3060 N   0  0  0  0  0  0  0  0  0  0  0  0
   21.9940    5.6960   16.9090 C   0  0  0  0  0  0  0  0  0  0  0  0
   22.3260    4.4480   16.4540 N   0  0  0  0  0  0  0  0  0  0  0  0
   21.5680    6.6310   16.1170 N   0  0  0  0  0  0  0  0  0  0  0  0
   21.3080    7.9860   16.5990 C   0  0  0  0  0  0  0  0  0  0  0  0
   20.4110    8.5730   15.5060 C   0  0  0  0  0  0  0  0  0  0  0  0
   20.4860    7.9370   17.8680 C   0  0  0  0  0  0  0  0  0  0  0  0
   21.3910    7.1420   19.1710 S   0  0  0  0  0  0  0  0  0  0  0  0
   20.4060    6.5520   20.0590 O   0  0  0  0  0  0  0  0  0  0  0  0
   22.4930    7.9390   19.6100 O   0  0  0  0  0  0  0  0  0  0  0  0
   22.2610    4.2410   15.4930 H   0  0  0  0  0  0  0  0  0  0  0  0
   22.6290    3.7570   17.0870 H   0  0  0  0  0  0  0  0  0  0  0  0
   26.1320    8.3960   15.8660 N   0  0  0  0  0  0  0  0  0  0  0  0
   27.3270    8.2000   16.5350 C   0  0  0  0  0  0  0  0  0  0  0  0
   27.6090    8.6740   17.6280 O   0  0  0  0  0  0  0  0  0  0  0  0
   26.0920    8.0480   14.9460 H   0  0  0  0  0  0  0  0  0  0  0  0
   28.2970    7.3100   15.8510 C   0  0  0  0  0  0  0  0  0  0  0  0
   27.9200    6.0300   15.4840 C   0  0  0  0  0  0  0  0  0  0  0  0
   28.8650    5.2420   14.8500 C   0  0  0  0  0  0  0  0  0  0  0  0
   30.1280    5.7460   14.6040 C   0  0  0  0  0  0  0  0  0  0  0  0
   31.0810    5.0160   14.0000 F   0  0  0  0  0  0  0  0  0  0  0  0
   30.4100    7.0300   15.0120 C   0  0  0  0  0  0  0  0  0  0  0  0
   29.5160    7.8160   15.6340 N   0  0  0  0  0  0  0  0  0  0  0  0
  8  9  1  0
  9 10  1  0
 10 11  1  0
 10 12  2  0
 12 13  1  0
 13 14  1  0
 13  1  1  0
  1  2  2  0
  2  3  1  0
  3 21  1  0
 21 22  1  0
 22 23  2  0
 22 25  1  0
 25 26  2  0
 26 27  1  0
 27 28  2  0
 28 29  1  0
 28 30  1  0
 30 31  2  0
  3  4  2  0
  4  5  1  0
  5  6  2  0
  6  7  1  0
 13 15  1  0
 15 16  1  0
 16 17  2  0
 16 18  2  0
 16  9  1  0
  6  1  1  0
 31 25  1  0
 11 19  1  0
 11 20  1  0
 21 24  1  0
M  END
> <meeko>
{"is_sidechain": false}

> <source_group>
BACE1-457

> <source_system>
BACE1_verubecestat

> <source_run>
alternate_457_seed20260825_ex32

> <source_seed>
20260825

> <vina_pose_rank>
3

> <vina_affinity_kcal_mol>
-7.9729999999999999

> <vina_rmsd_to_crystal_angstrom>
6.5221

> <minimizedAffinity>
-7.89693

> <CNNscore>
0.1428428292

> <CNNaffinity>
4.4404778481

> <CNN_VS>
0.6342903972

> <CNNaffinity_variance>
1.1427119970

$$$$
BACE1_verubecestat__alternate_457_seed20260825_ex32__pose04


 31 33  0  0  0  0  0  0  0  0999 V2000
   26.3500   12.6570   21.8060 C   0  0  0  0  0  0  0  0  0  0  0  0
   25.4180   12.2320   22.7520 C   0  0  0  0  0  0  0  0  0  0  0  0
   25.3800   12.7420   24.0300 C   0  0  0  0  0  0  0  0  0  0  0  0
   26.3020   13.7010   24.4320 C   0  0  0  0  0  0  0  0  0  0  0  0
   27.2320   14.1370   23.5050 C   0  0  0  0  0  0  0  0  0  0  0  0
   27.2380   13.6390   22.2170 C   0  0  0  0  0  0  0  0  0  0  0  0
   28.1430   14.1060   21.3180 F   0  0  0  0  0  0  0  0  0  0  0  0
   22.2360   13.0360   19.5520 C   0  0  0  0  0  0  0  0  0  0  0  0
   23.6590   12.6830   19.7200 N   0  0  0  0  0  0  0  0  0  0  0  0
   24.1030   11.3640   19.9630 C   0  0  0  0  0  0  0  0  0  0  0  0
   23.1130   10.4210   19.8790 N   0  0  0  0  0  0  0  0  0  0  0  0
   25.3350   11.0530   20.2200 N   0  0  0  0  0  0  0  0  0  0  0  0
   26.3640   12.0760   20.4010 C   0  0  0  0  0  0  0  0  0  0  0  0
   27.6650   11.2930   20.2030 C   0  0  0  0  0  0  0  0  0  0  0  0
   26.2860   13.0940   19.2850 C   0  0  0  0  0  0  0  0  0  0  0  0
   24.7420   13.9670   19.3410 S   0  0  0  0  0  0  0  0  0  0  0  0
   24.4530   14.3850   17.9810 O   0  0  0  0  0  0  0  0  0  0  0  0
   24.6630   14.8280   20.4800 O   0  0  0  0  0  0  0  0  0  0  0  0
   23.3240    9.4720   20.0330 H   0  0  0  0  0  0  0  0  0  0  0  0
   22.1910   10.6920   19.6640 H   0  0  0  0  0  0  0  0  0  0  0  0
   24.3950   12.2270   24.8820 N   0  0  0  0  0  0  0  0  0  0  0  0
   23.0770   12.6280   25.0110 C   0  0  0  0  0  0  0  0  0  0  0  0
   22.5840   13.6100   24.4720 O   0  0  0  0  0  0  0  0  0  0  0  0
   24.6770   11.4850   25.4650 H   0  0  0  0  0  0  0  0  0  0  0  0
   22.2260   11.7480   25.8480 C   0  0  0  0  0  0  0  0  0  0  0  0
   21.5520   10.6860   25.2700 C   0  0  0  0  0  0  0  0  0  0  0  0
   20.7710    9.8980   26.0970 C   0  0  0  0  0  0  0  0  0  0  0  0
   20.6910   10.1860   27.4460 C   0  0  0  0  0  0  0  0  0  0  0  0
   19.9380    9.4550   28.2860 F   0  0  0  0  0  0  0  0  0  0  0  0
   21.3940   11.2670   27.9260 C   0  0  0  0  0  0  0  0  0  0  0  0
   22.1560   12.0530   27.1470 N   0  0  0  0  0  0  0  0  0  0  0  0
  8  9  1  0
  9 10  1  0
 10 11  1  0
 10 12  2  0
 12 13  1  0
 13 14  1  0
 13  1  1  0
  1  2  2  0
  2  3  1  0
  3 21  1  0
 21 22  1  0
 22 23  2  0
 22 25  1  0
 25 26  2  0
 26 27  1  0
 27 28  2  0
 28 29  1  0
 28 30  1  0
 30 31  2  0
  3  4  2  0
  4  5  1  0
  5  6  2  0
  6  7  1  0
 13 15  1  0
 15 16  1  0
 16 17  2  0
 16 18  2  0
 16  9  1  0
  6  1  1  0
 31 25  1  0
 11 19  1  0
 11 20  1  0
 21 24  1  0
M  END
> <meeko>
{"is_sidechain": false}

> <source_group>
BACE1-457

> <source_system>
BACE1_verubecestat

> <source_run>
alternate_457_seed20260825_ex32

> <source_seed>
20260825

> <vina_pose_rank>
4

> <vina_affinity_kcal_mol>
-7.8520000000000003

> <vina_rmsd_to_crystal_angstrom>
7.1219999999999999

> <minimizedAffinity>
-7.64344

> <CNNscore>
0.0380942486

> <CNNaffinity>
4.0589547157

> <CNN_VS>
0.1546228230

> <CNNaffinity_variance>
1.4576435089

$$$$
BACE1_verubecestat__alternate_457_seed20260825_ex32__pose05


 31 33  0  0  0  0  0  0  0  0999 V2000
   23.6450   12.1110   20.1560 C   0  0  0  0  0  0  0  0  0  0  0  0
   23.2170   10.8230   19.8360 C   0  0  0  0  0  0  0  0  0  0  0  0
   22.6120    9.9990   20.7560 C   0  0  0  0  0  0  0  0  0  0  0  0
   22.4240   10.4240   22.0650 C   0  0  0  0  0  0  0  0  0  0  0  0
   22.8390   11.7010   22.4000 C   0  0  0  0  0  0  0  0  0  0  0  0
   23.4160   12.5290   21.4580 C   0  0  0  0  0  0  0  0  0  0  0  0
   23.7880   13.7880   21.8050 F   0  0  0  0  0  0  0  0  0  0  0  0
   21.0600   12.7460   16.2750 C   0  0  0  0  0  0  0  0  0  0  0  0
   22.2160   12.9260   17.1750 N   0  0  0  0  0  0  0  0  0  0  0  0
   23.4510   12.2670   16.9850 C   0  0  0  0  0  0  0  0  0  0  0  0
   23.5310   11.5660   15.8110 N   0  0  0  0  0  0  0  0  0  0  0  0
   24.4390   12.3280   17.8230 N   0  0  0  0  0  0  0  0  0  0  0  0
   24.3080   13.0000   19.1160 C   0  0  0  0  0  0  0  0  0  0  0  0
   25.7640   13.2390   19.5260 C   0  0  0  0  0  0  0  0  0  0  0  0
   23.6700   14.3590   18.9330 C   0  0  0  0  0  0  0  0  0  0  0  0
   22.0120   14.1960   18.3200 S   0  0  0  0  0  0  0  0  0  0  0  0
   21.7260   15.4070   17.5730 O   0  0  0  0  0  0  0  0  0  0  0  0
   21.1400   13.6330   19.3030 O   0  0  0  0  0  0  0  0  0  0  0  0
   24.3530   11.0730   15.5880 H   0  0  0  0  0  0  0  0  0  0  0  0
   22.7670   11.5570   15.1900 H   0  0  0  0  0  0  0  0  0  0  0  0
   22.2320    8.7270   20.3060 N   0  0  0  0  0  0  0  0  0  0  0  0
   21.4930    8.4010   19.1830 C   0  0  0  0  0  0  0  0  0  0  0  0
   20.9300    9.2060   18.4520 O   0  0  0  0  0  0  0  0  0  0  0  0
   22.5300    7.9690   20.8600 H   0  0  0  0  0  0  0  0  0  0  0  0
   21.4370    6.9550   18.8600 C   0  0  0  0  0  0  0  0  0  0  0  0
   22.5890    6.2840   18.4890 C   0  0  0  0  0  0  0  0  0  0  0  0
   22.4780    4.9360   18.1960 C   0  0  0  0  0  0  0  0  0  0  0  0
   21.2490    4.3120   18.2850 C   0  0  0  0  0  0  0  0  0  0  0  0
   21.0920    3.0080   18.0020 F   0  0  0  0  0  0  0  0  0  0  0  0
   20.1590    5.0650   18.6570 C   0  0  0  0  0  0  0  0  0  0  0  0
   20.2340    6.3760   18.9410 N   0  0  0  0  0  0  0  0  0  0  0  0
  8  9  1  0
  9 10  1  0
 10 11  1  0
 10 12  2  0
 12 13  1  0
 13 14  1  0
 13  1  1  0
  1  2  2  0
  2  3  1  0
  3 21  1  0
 21 22  1  0
 22 23  2  0
 22 25  1  0
 25 26  2  0
 26 27  1  0
 27 28  2  0
 28 29  1  0
 28 30  1  0
 30 31  2  0
  3  4  2  0
  4  5  1  0
  5  6  2  0
  6  7  1  0
 13 15  1  0
 15 16  1  0
 16 17  2  0
 16 18  2  0
 16  9  1  0
  6  1  1  0
 31 25  1  0
 11 19  1  0
 11 20  1  0
 21 24  1  0
M  END
> <meeko>
{"is_sidechain": false}

> <source_group>
BACE1-457

> <source_system>
BACE1_verubecestat

> <source_run>
alternate_457_seed20260825_ex32

> <source_seed>
20260825

> <vina_pose_rank>
5

> <vina_affinity_kcal_mol>
-7.6239999999999997

> <vina_rmsd_to_crystal_angstrom>
7.2569999999999997

> <minimizedAffinity>
-7.58860

> <CNNscore>
0.1825192273

> <CNNaffinity>
4.8942313194

> <CNN_VS>
0.8932912946

> <CNNaffinity_variance>
0.5718454719

$$$$
BACE1_verubecestat__alternate_457_seed20260825_ex32__pose06


 31 33  0  0  0  0  0  0  0  0999 V2000
   24.9830   11.6710   21.2240 C   0  0  0  0  0  0  0  0  0  0  0  0
   24.5330   10.4120   20.8290 C   0  0  0  0  0  0  0  0  0  0  0  0
   23.2120   10.0380   20.9290 C   0  0  0  0  0  0  0  0  0  0  0  0
   22.2710   10.9120   21.4580 C   0  0  0  0  0  0  0  0  0  0  0  0
   22.6990   12.1670   21.8520 C   0  0  0  0  0  0  0  0  0  0  0  0
   24.0220   12.5410   21.7160 C   0  0  0  0  0  0  0  0  0  0  0  0
   24.4110   13.7890   22.0840 F   0  0  0  0  0  0  0  0  0  0  0  0
   26.7750   10.9530   16.9320 C   0  0  0  0  0  0  0  0  0  0  0  0
   26.7750   11.3870   18.3430 N   0  0  0  0  0  0  0  0  0  0  0  0
   27.3570   10.6280   19.3820 C   0  0  0  0  0  0  0  0  0  0  0  0
   28.0530    9.5320   18.9470 N   0  0  0  0  0  0  0  0  0  0  0  0
   27.2720   10.9390   20.6390 N   0  0  0  0  0  0  0  0  0  0  0  0
   26.4490   12.0560   21.0990 C   0  0  0  0  0  0  0  0  0  0  0  0
   27.0070   12.3410   22.4960 C   0  0  0  0  0  0  0  0  0  0  0  0
   26.7190   13.2830   20.2560 C   0  0  0  0  0  0  0  0  0  0  0  0
   26.2330   13.0050   18.5710 S   0  0  0  0  0  0  0  0  0  0  0  0
   27.0740   13.8590   17.7520 O   0  0  0  0  0  0  0  0  0  0  0  0
   24.8130   12.9120   18.4400 O   0  0  0  0  0  0  0  0  0  0  0  0
   28.4960    8.9400   19.5970 H   0  0  0  0  0  0  0  0  0  0  0  0
   28.1110    9.3360   17.9840 H   0  0  0  0  0  0  0  0  0  0  0  0
   22.8930    8.7430   20.4990 N   0  0  0  0  0  0  0  0  0  0  0  0
   21.9970    8.3640   19.5150 C   0  0  0  0  0  0  0  0  0  0  0  0
   21.2260    9.1170   18.9360 O   0  0  0  0  0  0  0  0  0  0  0  0
   23.3670    8.0100   20.9550 H   0  0  0  0  0  0  0  0  0  0  0  0
   22.0360    6.9280   19.1430 C   0  0  0  0  0  0  0  0  0  0  0  0
   22.7740    6.5180   18.0470 C   0  0  0  0  0  0  0  0  0  0  0  0
   22.7730    5.1680   17.7440 C   0  0  0  0  0  0  0  0  0  0  0  0
   22.0540    4.2870   18.5300 C   0  0  0  0  0  0  0  0  0  0  0  0
   22.0160    2.9690   18.2700 F   0  0  0  0  0  0  0  0  0  0  0  0
   21.3460    4.7920   19.5970 C   0  0  0  0  0  0  0  0  0  0  0  0
   21.3240    6.0980   19.9120 N   0  0  0  0  0  0  0  0  0  0  0  0
  8  9  1  0
  9 10  1  0
 10 11  1  0
 10 12  2  0
 12 13  1  0
 13 14  1  0
 13  1  1  0
  1  2  2  0
  2  3  1  0
  3 21  1  0
 21 22  1  0
 22 23  2  0
 22 25  1  0
 25 26  2  0
 26 27  1  0
 27 28  2  0
 28 29  1  0
 28 30  1  0
 30 31  2  0
  3  4  2  0
  4  5  1  0
  5  6  2  0
  6  7  1  0
 13 15  1  0
 15 16  1  0
 16 17  2  0
 16 18  2  0
 16  9  1  0
  6  1  1  0
 31 25  1  0
 11 19  1  0
 11 20  1  0
 21 24  1  0
M  END
> <meeko>
{"is_sidechain": false}

> <source_group>
BACE1-457

> <source_system>
BACE1_verubecestat

> <source_run>
alternate_457_seed20260825_ex32

> <source_seed>
20260825

> <vina_pose_rank>
6

> <vina_affinity_kcal_mol>
-7.4569999999999999

> <vina_rmsd_to_crystal_angstrom>
7.0789

> <minimizedAffinity>
-7.37472

> <CNNscore>
0.1074696705

> <CNNaffinity>
4.5271682739

> <CNN_VS>
0.4865332842

> <CNNaffinity_variance>
1.1105011702

$$$$
BACE1_verubecestat__alternate_457_seed20260825_ex32__pose07


 31 33  0  0  0  0  0  0  0  0999 V2000
   21.6050    8.1670   17.1960 C   0  0  0  0  0  0  0  0  0  0  0  0
   21.8320    8.8010   18.4170 C   0  0  0  0  0  0  0  0  0  0  0  0
   22.1090    8.1010   19.5690 C   0  0  0  0  0  0  0  0  0  0  0  0
   22.1520    6.7120   19.5550 C   0  0  0  0  0  0  0  0  0  0  0  0
   21.9330    6.0670   18.3510 C   0  0  0  0  0  0  0  0  0  0  0  0
   21.6870    6.7830   17.1970 C   0  0  0  0  0  0  0  0  0  0  0  0
   21.5050    6.1270   16.0220 F   0  0  0  0  0  0  0  0  0  0  0  0
   24.7380   11.5670   16.3140 C   0  0  0  0  0  0  0  0  0  0  0  0
   23.5510   10.7240   16.0690 N   0  0  0  0  0  0  0  0  0  0  0  0
   22.2310   11.1610   16.3220 C   0  0  0  0  0  0  0  0  0  0  0  0
   22.1400   12.4830   16.6670 N   0  0  0  0  0  0  0  0  0  0  0  0
   21.1860   10.4000   16.2160 N   0  0  0  0  0  0  0  0  0  0  0  0
   21.3040    8.9690   15.9390 C   0  0  0  0  0  0  0  0  0  0  0  0
   19.9030    8.6000   15.4410 C   0  0  0  0  0  0  0  0  0  0  0  0
   22.2580    8.7390   14.7880 C   0  0  0  0  0  0  0  0  0  0  0  0
   23.8970    9.2690   15.2160 S   0  0  0  0  0  0  0  0  0  0  0  0
   24.5490    9.6440   13.9740 O   0  0  0  0  0  0  0  0  0  0  0  0
   24.4820    8.4230   16.2080 O   0  0  0  0  0  0  0  0  0  0  0  0
   21.2610   12.8810   16.8630 H   0  0  0  0  0  0  0  0  0  0  0  0
   22.9530   13.0350   16.7200 H   0  0  0  0  0  0  0  0  0  0  0  0
   22.3140    8.8580   20.7290 N   0  0  0  0  0  0  0  0  0  0  0  0
   23.2610    9.8420   20.9550 C   0  0  0  0  0  0  0  0  0  0  0  0
   24.1780   10.1240   20.1950 O   0  0  0  0  0  0  0  0  0  0  0  0
   21.7060    8.6660   21.4800 H   0  0  0  0  0  0  0  0  0  0  0  0
   23.0890   10.6100   22.2120 C   0  0  0  0  0  0  0  0  0  0  0  0
   22.7320   11.9460   22.1620 C   0  0  0  0  0  0  0  0  0  0  0  0
   22.5870   12.6150   23.3650 C   0  0  0  0  0  0  0  0  0  0  0  0
   22.7950   11.9430   24.5550 C   0  0  0  0  0  0  0  0  0  0  0  0
   22.6750   12.5530   25.7460 F   0  0  0  0  0  0  0  0  0  0  0  0
   23.1520   10.6150   24.5010 C   0  0  0  0  0  0  0  0  0  0  0  0
   23.3060    9.9410   23.3500 N   0  0  0  0  0  0  0  0  0  0  0  0
  8  9  1  0
  9 10  1  0
 10 11  1  0
 10 12  2  0
 12 13  1  0
 13 14  1  0
 13  1  1  0
  1  2  2  0
  2  3  1  0
  3 21  1  0
 21 22  1  0
 22 23  2  0
 22 25  1  0
 25 26  2  0
 26 27  1  0
 27 28  2  0
 28 29  1  0
 28 30  1  0
 30 31  2  0
  3  4  2  0
  4  5  1  0
  5  6  2  0
  6  7  1  0
 13 15  1  0
 15 16  1  0
 16 17  2  0
 16 18  2  0
 16  9  1  0
  6  1  1  0
 31 25  1  0
 11 19  1  0
 11 20  1  0
 21 24  1  0
M  END
> <meeko>
{"is_sidechain": false}

> <source_group>
BACE1-457

> <source_system>
BACE1_verubecestat

> <source_run>
alternate_457_seed20260825_ex32

> <source_seed>
20260825

> <vina_pose_rank>
7

> <vina_affinity_kcal_mol>
-7.2190000000000003

> <vina_rmsd_to_crystal_angstrom>
6.9874999999999998

> <minimizedAffinity>
-7.15083

> <CNNscore>
0.1263685077

> <CNNaffinity>
5.0286459923

> <CNN_VS>
0.6354624629

> <CNNaffinity_variance>
0.3500612676

$$$$
BACE1_verubecestat__alternate_457_seed20260825_ex32__pose08


 31 33  0  0  0  0  0  0  0  0999 V2000
   24.0170    6.8930   15.0020 C   0  0  0  0  0  0  0  0  0  0  0  0
   23.8370    7.8620   15.9890 C   0  0  0  0  0  0  0  0  0  0  0  0
   23.2930    7.5680   17.2180 C   0  0  0  0  0  0  0  0  0  0  0  0
   22.8780    6.2750   17.5130 C   0  0  0  0  0  0  0  0  0  0  0  0
   23.0520    5.3000   16.5470 C   0  0  0  0  0  0  0  0  0  0  0  0
   23.6290    5.6030   15.3290 C   0  0  0  0  0  0  0  0  0  0  0  0
   23.8160    4.6220   14.4090 F   0  0  0  0  0  0  0  0  0  0  0  0
   28.4930    8.3280   15.2540 C   0  0  0  0  0  0  0  0  0  0  0  0
   27.2240    7.9620   14.5930 N   0  0  0  0  0  0  0  0  0  0  0  0
   26.3030    8.9180   14.1110 C   0  0  0  0  0  0  0  0  0  0  0  0
   26.7580   10.2080   14.1730 N   0  0  0  0  0  0  0  0  0  0  0  0
   25.1380    8.6180   13.6270 N   0  0  0  0  0  0  0  0  0  0  0  0
   24.6250    7.2490   13.6540 C   0  0  0  0  0  0  0  0  0  0  0  0
   23.5110    7.2790   12.6030 C   0  0  0  0  0  0  0  0  0  0  0  0
   25.6810    6.2890   13.1530 C   0  0  0  0  0  0  0  0  0  0  0  0
   27.0870    6.2830   14.2360 S   0  0  0  0  0  0  0  0  0  0  0  0
   28.2340    5.9220   13.4230 O   0  0  0  0  0  0  0  0  0  0  0  0
   26.7780    5.6890   15.4990 O   0  0  0  0  0  0  0  0  0  0  0  0
   26.1880   10.9470   13.8590 H   0  0  0  0  0  0  0  0  0  0  0  0
   27.6560   10.3970   14.5300 H   0  0  0  0  0  0  0  0  0  0  0  0
   23.1640    8.6330   18.1190 N   0  0  0  0  0  0  0  0  0  0  0  0
   22.0130    9.1210   18.7110 C   0  0  0  0  0  0  0  0  0  0  0  0
   20.8740    8.7660   18.4350 O   0  0  0  0  0  0  0  0  0  0  0  0
   24.0000    9.0940   18.3610 H   0  0  0  0  0  0  0  0  0  0  0  0
   22.2280   10.1230   19.7830 C   0  0  0  0  0  0  0  0  0  0  0  0
   22.3680    9.7100   21.0970 C   0  0  0  0  0  0  0  0  0  0  0  0
   22.5640   10.6880   22.0560 C   0  0  0  0  0  0  0  0  0  0  0  0
   22.6170   12.0170   21.6830 C   0  0  0  0  0  0  0  0  0  0  0  0
   22.7960   13.0020   22.5800 F   0  0  0  0  0  0  0  0  0  0  0  0
   22.4600   12.3290   20.3520 C   0  0  0  0  0  0  0  0  0  0  0  0
   22.2630   11.4030   19.3990 N   0  0  0  0  0  0  0  0  0  0  0  0
  8  9  1  0
  9 10  1  0
 10 11  1  0
 10 12  2  0
 12 13  1  0
 13 14  1  0
 13  1  1  0
  1  2  2  0
  2  3  1  0
  3 21  1  0
 21 22  1  0
 22 23  2  0
 22 25  1  0
 25 26  2  0
 26 27  1  0
 27 28  2  0
 28 29  1  0
 28 30  1  0
 30 31  2  0
  3  4  2  0
  4  5  1  0
  5  6  2  0
  6  7  1  0
 13 15  1  0
 15 16  1  0
 16 17  2  0
 16 18  2  0
 16  9  1  0
  6  1  1  0
 31 25  1  0
 11 19  1  0
 11 20  1  0
 21 24  1  0
M  END
> <meeko>
{"is_sidechain": false}

> <source_group>
BACE1-457

> <source_system>
BACE1_verubecestat

> <source_run>
alternate_457_seed20260825_ex32

> <source_seed>
20260825

> <vina_pose_rank>
8

> <vina_affinity_kcal_mol>
-7.2089999999999996

> <vina_rmsd_to_crystal_angstrom>
8.9825999999999997

> <minimizedAffinity>
-7.19827

> <CNNscore>
0.1486610025

> <CNNaffinity>
4.8855099678

> <CNN_VS>
0.7262848020

> <CNNaffinity_variance>
0.3201333582

$$$$
BACE1_verubecestat__alternate_457_seed20260825_ex32__pose09


 31 33  0  0  0  0  0  0  0  0999 V2000
   25.5240   14.2240   22.5250 C   0  0  0  0  0  0  0  0  0  0  0  0
   24.4910   13.7470   23.3310 C   0  0  0  0  0  0  0  0  0  0  0  0
   24.6250   13.6060   24.6940 C   0  0  0  0  0  0  0  0  0  0  0  0
   25.8260   13.9210   25.3190 C   0  0  0  0  0  0  0  0  0  0  0  0
   26.8610   14.3990   24.5350 C   0  0  0  0  0  0  0  0  0  0  0  0
   26.7010   14.5650   23.1730 C   0  0  0  0  0  0  0  0  0  0  0  0
   27.7230   15.0650   22.4310 F   0  0  0  0  0  0  0  0  0  0  0  0
   27.1260   10.5540   20.0520 C   0  0  0  0  0  0  0  0  0  0  0  0
   26.4770   11.8630   20.2650 N   0  0  0  0  0  0  0  0  0  0  0  0
   27.1260   13.0930   20.0210 C   0  0  0  0  0  0  0  0  0  0  0  0
   28.3530   12.9650   19.4270 N   0  0  0  0  0  0  0  0  0  0  0  0
   26.6110   14.2500   20.3040 N   0  0  0  0  0  0  0  0  0  0  0  0
   25.3440   14.3710   21.0230 C   0  0  0  0  0  0  0  0  0  0  0  0
   24.9110   15.8070   20.7150 C   0  0  0  0  0  0  0  0  0  0  0  0
   24.3090   13.4550   20.4090 C   0  0  0  0  0  0  0  0  0  0  0  0
   24.7890   11.7560   20.5890 S   0  0  0  0  0  0  0  0  0  0  0  0
   24.1840   11.0350   19.4840 O   0  0  0  0  0  0  0  0  0  0  0  0
   24.7290   11.3330   21.9530 O   0  0  0  0  0  0  0  0  0  0  0  0
   28.8840   13.7680   19.2160 H   0  0  0  0  0  0  0  0  0  0  0  0
   28.7050   12.0720   19.2100 H   0  0  0  0  0  0  0  0  0  0  0  0
   23.5120   13.1130   25.3860 N   0  0  0  0  0  0  0  0  0  0  0  0
   23.0990   11.7990   25.5210 C   0  0  0  0  0  0  0  0  0  0  0  0
   23.5870   10.8440   24.9320 O   0  0  0  0  0  0  0  0  0  0  0  0
   22.9520   13.7870   25.8350 H   0  0  0  0  0  0  0  0  0  0  0  0
   22.0010   11.5770   26.4930 C   0  0  0  0  0  0  0  0  0  0  0  0
   20.7680   11.1290   26.0510 C   0  0  0  0  0  0  0  0  0  0  0  0
   19.7780   10.9410   27.0000 C   0  0  0  0  0  0  0  0  0  0  0  0
   20.0450   11.1970   28.3310 C   0  0  0  0  0  0  0  0  0  0  0  0
   19.1130   11.0370   29.2870 F   0  0  0  0  0  0  0  0  0  0  0  0
   21.3010   11.6450   28.6720 C   0  0  0  0  0  0  0  0  0  0  0  0
   22.2790   11.8430   27.7730 N   0  0  0  0  0  0  0  0  0  0  0  0
  8  9  1  0
  9 10  1  0
 10 11  1  0
 10 12  2  0
 12 13  1  0
 13 14  1  0
 13  1  1  0
  1  2  2  0
  2  3  1  0
  3 21  1  0
 21 22  1  0
 22 23  2  0
 22 25  1  0
 25 26  2  0
 26 27  1  0
 27 28  2  0
 28 29  1  0
 28 30  1  0
 30 31  2  0
  3  4  2  0
  4  5  1  0
  5  6  2  0
  6  7  1  0
 13 15  1  0
 15 16  1  0
 16 17  2  0
 16 18  2  0
 16  9  1  0
  6  1  1  0
 31 25  1  0
 11 19  1  0
 11 20  1  0
 21 24  1  0
M  END
> <meeko>
{"is_sidechain": false}

> <source_group>
BACE1-457

> <source_system>
BACE1_verubecestat

> <source_run>
alternate_457_seed20260825_ex32

> <source_seed>
20260825

> <vina_pose_rank>
9

> <vina_affinity_kcal_mol>
-7.1429999999999998

> <vina_rmsd_to_crystal_angstrom>
7.8076999999999996

> <minimizedAffinity>
-7.60356

> <CNNscore>
0.0333001390

> <CNNaffinity>
3.5080881119

> <CNN_VS>
0.1168198213

> <CNNaffinity_variance>
2.0157802105

$$$$
BACE1_verubecestat__alternate_457_seed20260825_ex32__pose10


 31 33  0  0  0  0  0  0  0  0999 V2000
   22.7090    9.1450   17.4920 C   0  0  0  0  0  0  0  0  0  0  0  0
   22.6470    9.5450   18.8260 C   0  0  0  0  0  0  0  0  0  0  0  0
   23.7260   10.0960   19.4800 C   0  0  0  0  0  0  0  0  0  0  0  0
   24.9400   10.2550   18.8240 C   0  0  0  0  0  0  0  0  0  0  0  0
   25.0190    9.8660   17.4990 C   0  0  0  0  0  0  0  0  0  0  0  0
   23.9200    9.3440   16.8460 C   0  0  0  0  0  0  0  0  0  0  0  0
   24.0150    8.9980   15.5370 F   0  0  0  0  0  0  0  0  0  0  0  0
   22.6320    4.4390   17.5560 C   0  0  0  0  0  0  0  0  0  0  0  0
   22.1320    5.7970   17.2620 N   0  0  0  0  0  0  0  0  0  0  0  0
   22.2170    6.3880   15.9820 C   0  0  0  0  0  0  0  0  0  0  0  0
   22.6630    5.5380   15.0060 N   0  0  0  0  0  0  0  0  0  0  0  0
   21.8830    7.6160   15.7310 N   0  0  0  0  0  0  0  0  0  0  0  0
   21.4990    8.5410   16.7960 C   0  0  0  0  0  0  0  0  0  0  0  0
   20.7610    9.6490   16.0390 C   0  0  0  0  0  0  0  0  0  0  0  0
   20.4920    7.8850   17.7150 C   0  0  0  0  0  0  0  0  0  0  0  0
   21.2140    6.4910   18.5430 S   0  0  0  0  0  0  0  0  0  0  0  0
   20.1270    5.5750   18.8370 O   0  0  0  0  0  0  0  0  0  0  0  0
   22.2030    6.8950   19.4920 O   0  0  0  0  0  0  0  0  0  0  0  0
   22.7560    5.8580   14.0800 H   0  0  0  0  0  0  0  0  0  0  0  0
   22.8910    4.6070   15.2300 H   0  0  0  0  0  0  0  0  0  0  0  0
   23.5310   10.4530   20.8210 N   0  0  0  0  0  0  0  0  0  0  0  0
   22.8630   11.5540   21.3260 C   0  0  0  0  0  0  0  0  0  0  0  0
   22.4320   12.4850   20.6580 O   0  0  0  0  0  0  0  0  0  0  0  0
   23.9190    9.8420   21.4880 H   0  0  0  0  0  0  0  0  0  0  0  0
   22.6450   11.5440   22.7930 C   0  0  0  0  0  0  0  0  0  0  0  0
   22.6360   12.7340   23.4990 C   0  0  0  0  0  0  0  0  0  0  0  0
   22.4310   12.6660   24.8660 C   0  0  0  0  0  0  0  0  0  0  0  0
   22.2400   11.4390   25.4720 C   0  0  0  0  0  0  0  0  0  0  0  0
   22.0460   11.3230   26.7970 F   0  0  0  0  0  0  0  0  0  0  0  0
   22.2710   10.3100   24.6860 C   0  0  0  0  0  0  0  0  0  0  0  0
   22.4740   10.3440   23.3590 N   0  0  0  0  0  0  0  0  0  0  0  0
  8  9  1  0
  9 10  1  0
 10 11  1  0
 10 12  2  0
 12 13  1  0
 13 14  1  0
 13  1  1  0
  1  2  2  0
  2  3  1  0
  3 21  1  0
 21 22  1  0
 22 23  2  0
 22 25  1  0
 25 26  2  0
 26 27  1  0
 27 28  2  0
 28 29  1  0
 28 30  1  0
 30 31  2  0
  3  4  2  0
  4  5  1  0
  5  6  2  0
  6  7  1  0
 13 15  1  0
 15 16  1  0
 16 17  2  0
 16 18  2  0
 16  9  1  0
  6  1  1  0
 31 25  1  0
 11 19  1  0
 11 20  1  0
 21 24  1  0
M  END
> <meeko>
{"is_sidechain": false}

> <source_group>
BACE1-457

> <source_system>
BACE1_verubecestat

> <source_run>
alternate_457_seed20260825_ex32

> <source_seed>
20260825

> <vina_pose_rank>
10

> <vina_affinity_kcal_mol>
-7.1150000000000002

> <vina_rmsd_to_crystal_angstrom>
6.8049999999999997

> <minimizedAffinity>
-7.58159

> <CNNscore>
0.0836689472

> <CNNaffinity>
4.4047069550

> <CNN_VS>
0.3685371876

> <CNNaffinity_variance>
1.0620241165

$$$$
BACE1_verubecestat__alternate_457_seed20260825_ex32__pose11


 31 33  0  0  0  0  0  0  0  0999 V2000
   23.4910   10.8530   18.4800 C   0  0  0  0  0  0  0  0  0  0  0  0
   23.0760   10.5700   19.7810 C   0  0  0  0  0  0  0  0  0  0  0  0
   22.6710   11.5530   20.6540 C   0  0  0  0  0  0  0  0  0  0  0  0
   22.6850   12.8870   20.2670 C   0  0  0  0  0  0  0  0  0  0  0  0
   23.0900   13.1870   18.9790 C   0  0  0  0  0  0  0  0  0  0  0  0
   23.4630   12.1870   18.1020 C   0  0  0  0  0  0  0  0  0  0  0  0
   23.8290   12.5040   16.8340 F   0  0  0  0  0  0  0  0  0  0  0  0
   20.0840    7.7720   17.4550 C   0  0  0  0  0  0  0  0  0  0  0  0
   21.4310    8.3730   17.3860 N   0  0  0  0  0  0  0  0  0  0  0  0
   22.5460    7.8430   18.0720 C   0  0  0  0  0  0  0  0  0  0  0  0
   22.3040    6.6410   18.6810 N   0  0  0  0  0  0  0  0  0  0  0  0
   23.7090    8.4170   18.1100 N   0  0  0  0  0  0  0  0  0  0  0  0
   23.9300    9.7430   17.5370 C   0  0  0  0  0  0  0  0  0  0  0  0
   25.4520    9.8000   17.3810 C   0  0  0  0  0  0  0  0  0  0  0  0
   23.3390    9.8140   16.1460 C   0  0  0  0  0  0  0  0  0  0  0  0
   21.5760    9.6150   16.2030 S   0  0  0  0  0  0  0  0  0  0  0  0
   21.1820    9.0430   14.9280 O   0  0  0  0  0  0  0  0  0  0  0  0
   20.9380   10.7420   16.8100 O   0  0  0  0  0  0  0  0  0  0  0  0
   23.0210    6.1910   19.1850 H   0  0  0  0  0  0  0  0  0  0  0  0
   21.4130    6.2260   18.6160 H   0  0  0  0  0  0  0  0  0  0  0  0
   22.2810   11.1350   21.9330 N   0  0  0  0  0  0  0  0  0  0  0  0
   22.9700   11.2670   23.1260 C   0  0  0  0  0  0  0  0  0  0  0  0
   24.1210   11.6700   23.2330 O   0  0  0  0  0  0  0  0  0  0  0  0
   21.4040   10.6900   21.9900 H   0  0  0  0  0  0  0  0  0  0  0  0
   22.2010   10.9140   24.3440 C   0  0  0  0  0  0  0  0  0  0  0  0
   21.8460   11.9010   25.2470 C   0  0  0  0  0  0  0  0  0  0  0  0
   21.1310   11.5150   26.3670 C   0  0  0  0  0  0  0  0  0  0  0  0
   20.7970   10.1860   26.5460 C   0  0  0  0  0  0  0  0  0  0  0  0
   20.1110    9.7630   27.6220 F   0  0  0  0  0  0  0  0  0  0  0  0
   21.2000    9.2770   25.5940 C   0  0  0  0  0  0  0  0  0  0  0  0
   21.9000    9.6210   24.5010 N   0  0  0  0  0  0  0  0  0  0  0  0
  8  9  1  0
  9 10  1  0
 10 11  1  0
 10 12  2  0
 12 13  1  0
 13 14  1  0
 13  1  1  0
  1  2  2  0
  2  3  1  0
  3 21  1  0
 21 22  1  0
 22 23  2  0
 22 25  1  0
 25 26  2  0
 26 27  1  0
 27 28  2  0
 28 29  1  0
 28 30  1  0
 30 31  2  0
  3  4  2  0
  4  5  1  0
  5  6  2  0
  6  7  1  0
 13 15  1  0
 15 16  1  0
 16 17  2  0
 16 18  2  0
 16  9  1  0
  6  1  1  0
 31 25  1  0
 11 19  1  0
 11 20  1  0
 21 24  1  0
M  END
> <meeko>
{"is_sidechain": false}

> <source_group>
BACE1-457

> <source_system>
BACE1_verubecestat

> <source_run>
alternate_457_seed20260825_ex32

> <source_seed>
20260825

> <vina_pose_rank>
11

> <vina_affinity_kcal_mol>
-6.9699999999999998

> <vina_rmsd_to_crystal_angstrom>
6.8230000000000004

> <minimizedAffinity>
-6.85721

> <CNNscore>
0.1775293201

> <CNNaffinity>
5.0885262489

> <CNN_VS>
0.9033626318

> <CNNaffinity_variance>
0.5214287043

$$$$
BACE1_verubecestat__alternate_457_seed20260825_ex32__pose12


 31 33  0  0  0  0  0  0  0  0999 V2000
   22.3670   10.9540   15.8220 C   0  0  0  0  0  0  0  0  0  0  0  0
   22.5280   10.8480   17.2030 C   0  0  0  0  0  0  0  0  0  0  0  0
   21.8600   11.6650   18.0860 C   0  0  0  0  0  0  0  0  0  0  0  0
   21.0050   12.6550   17.6200 C   0  0  0  0  0  0  0  0  0  0  0  0
   20.8300   12.7730   16.2520 C   0  0  0  0  0  0  0  0  0  0  0  0
   21.4820   11.9250   15.3790 C   0  0  0  0  0  0  0  0  0  0  0  0
   21.2710   12.0410   14.0430 F   0  0  0  0  0  0  0  0  0  0  0  0
   21.5270    6.3800   16.5480 C   0  0  0  0  0  0  0  0  0  0  0  0
   22.1120    7.5590   15.8790 N   0  0  0  0  0  0  0  0  0  0  0  0
   23.4480    7.9730   16.0790 C   0  0  0  0  0  0  0  0  0  0  0  0
   24.1940    7.1010   16.8250 N   0  0  0  0  0  0  0  0  0  0  0  0
   23.9460    9.0640   15.5860 N   0  0  0  0  0  0  0  0  0  0  0  0
   23.1170   10.0330   14.8710 C   0  0  0  0  0  0  0  0  0  0  0  0
   24.1460   10.8580   14.0930 C   0  0  0  0  0  0  0  0  0  0  0  0
   22.2530    9.3250   13.8510 C   0  0  0  0  0  0  0  0  0  0  0  0
   21.1100    8.2280   14.6500 S   0  0  0  0  0  0  0  0  0  0  0  0
   20.8240    7.1660   13.7030 O   0  0  0  0  0  0  0  0  0  0  0  0
   20.1100    8.9460   15.3770 O   0  0  0  0  0  0  0  0  0  0  0  0
   25.1380    7.3020   17.0190 H   0  0  0  0  0  0  0  0  0  0  0  0
   23.7870    6.2720   17.1680 H   0  0  0  0  0  0  0  0  0  0  0  0
   22.1130   11.4560   19.4480 N   0  0  0  0  0  0  0  0  0  0  0  0
   22.8000   12.2740   20.3280 C   0  0  0  0  0  0  0  0  0  0  0  0
   23.4230   13.2800   20.0130 O   0  0  0  0  0  0  0  0  0  0  0  0
   21.7560   10.6210   19.8280 H   0  0  0  0  0  0  0  0  0  0  0  0
   22.7170   11.8800   21.7550 C   0  0  0  0  0  0  0  0  0  0  0  0
   22.5570   10.5490   22.0960 C   0  0  0  0  0  0  0  0  0  0  0  0
   22.4840   10.2380   23.4430 C   0  0  0  0  0  0  0  0  0  0  0  0
   22.5750   11.2430   24.3860 C   0  0  0  0  0  0  0  0  0  0  0  0
   22.4990   10.9900   25.7040 F   0  0  0  0  0  0  0  0  0  0  0  0
   22.7280   12.5390   23.9490 C   0  0  0  0  0  0  0  0  0  0  0  0
   22.7960   12.8710   22.6490 N   0  0  0  0  0  0  0  0  0  0  0  0
  8  9  1  0
  9 10  1  0
 10 11  1  0
 10 12  2  0
 12 13  1  0
 13 14  1  0
 13  1  1  0
  1  2  2  0
  2  3  1  0
  3 21  1  0
 21 22  1  0
 22 23  2  0
 22 25  1  0
 25 26  2  0
 26 27  1  0
 27 28  2  0
 28 29  1  0
 28 30  1  0
 30 31  2  0
  3  4  2  0
  4  5  1  0
  5  6  2  0
  6  7  1  0
 13 15  1  0
 15 16  1  0
 16 17  2  0
 16 18  2  0
 16  9  1  0
  6  1  1  0
 31 25  1  0
 11 19  1  0
 11 20  1  0
 21 24  1  0
M  END
> <meeko>
{"is_sidechain": false}

> <source_group>
BACE1-457

> <source_system>
BACE1_verubecestat

> <source_run>
alternate_457_seed20260825_ex32

> <source_seed>
20260825

> <vina_pose_rank>
12

> <vina_affinity_kcal_mol>
-6.9059999999999997

> <vina_rmsd_to_crystal_angstrom>
7.3819999999999997

> <minimizedAffinity>
-6.72397

> <CNNscore>
0.2519226074

> <CNNaffinity>
4.6839618683

> <CNN_VS>
1.1799958944

> <CNNaffinity_variance>
0.4445894659

$$$$
BACE1_verubecestat__alternate_457_seed20260825_ex32__pose13


 31 33  0  0  0  0  0  0  0  0999 V2000
   22.5250    8.3280   17.6290 C   0  0  0  0  0  0  0  0  0  0  0  0
   23.7000    7.8460   17.0540 C   0  0  0  0  0  0  0  0  0  0  0  0
   23.7290    6.7040   16.2850 C   0  0  0  0  0  0  0  0  0  0  0  0
   22.5690    5.9700   16.0720 C   0  0  0  0  0  0  0  0  0  0  0  0
   21.3920    6.4360   16.6330 C   0  0  0  0  0  0  0  0  0  0  0  0
   21.3730    7.6000   17.3750 C   0  0  0  0  0  0  0  0  0  0  0  0
   20.2000    8.0520   17.8890 F   0  0  0  0  0  0  0  0  0  0  0  0
   23.8970   12.1700   15.2810 C   0  0  0  0  0  0  0  0  0  0  0  0
   23.4020   11.3940   16.4360 N   0  0  0  0  0  0  0  0  0  0  0  0
   24.2260   11.0150   17.5190 C   0  0  0  0  0  0  0  0  0  0  0  0
   25.4820   11.5570   17.4780 N   0  0  0  0  0  0  0  0  0  0  0  0
   23.8360   10.2430   18.4860 N   0  0  0  0  0  0  0  0  0  0  0  0
   22.5250    9.5950   18.4710 C   0  0  0  0  0  0  0  0  0  0  0  0
   22.3150    9.2120   19.9390 C   0  0  0  0  0  0  0  0  0  0  0  0
   21.4520   10.6000   18.1160 C   0  0  0  0  0  0  0  0  0  0  0  0
   21.6900   11.2160   16.4690 S   0  0  0  0  0  0  0  0  0  0  0  0
   21.1180   12.5500   16.4390 O   0  0  0  0  0  0  0  0  0  0  0  0
   21.4320   10.2090   15.4870 O   0  0  0  0  0  0  0  0  0  0  0  0
   26.1300   11.3510   18.1890 H   0  0  0  0  0  0  0  0  0  0  0  0
   25.7370   12.1530   16.7370 H   0  0  0  0  0  0  0  0  0  0  0  0
   24.9750    6.3270   15.7680 N   0  0  0  0  0  0  0  0  0  0  0  0
   25.4910    6.5760   14.5090 C   0  0  0  0  0  0  0  0  0  0  0  0
   24.8690    7.0710   13.5780 O   0  0  0  0  0  0  0  0  0  0  0  0
   25.5580    5.8210   16.3790 H   0  0  0  0  0  0  0  0  0  0  0  0
   26.9230    6.2320   14.3320 C   0  0  0  0  0  0  0  0  0  0  0  0
   27.6090    6.6800   13.2160 C   0  0  0  0  0  0  0  0  0  0  0  0
   28.9420    6.3270   13.1010 C   0  0  0  0  0  0  0  0  0  0  0  0
   29.5380    5.5590   14.0830 C   0  0  0  0  0  0  0  0  0  0  0  0
   30.8260    5.1840   14.0090 F   0  0  0  0  0  0  0  0  0  0  0  0
   28.7710    5.1560   15.1520 C   0  0  0  0  0  0  0  0  0  0  0  0
   27.4740    5.4770   15.2890 N   0  0  0  0  0  0  0  0  0  0  0  0
  8  9  1  0
  9 10  1  0
 10 11  1  0
 10 12  2  0
 12 13  1  0
 13 14  1  0
 13  1  1  0
  1  2  2  0
  2  3  1  0
  3 21  1  0
 21 22  1  0
 22 23  2  0
 22 25  1  0
 25 26  2  0
 26 27  1  0
 27 28  2  0
 28 29  1  0
 28 30  1  0
 30 31  2  0
  3  4  2  0
  4  5  1  0
  5  6  2  0
  6  7  1  0
 13 15  1  0
 15 16  1  0
 16 17  2  0
 16 18  2  0
 16  9  1  0
  6  1  1  0
 31 25  1  0
 11 19  1  0
 11 20  1  0
 21 24  1  0
M  END
> <meeko>
{"is_sidechain": false}

> <source_group>
BACE1-457

> <source_system>
BACE1_verubecestat

> <source_run>
alternate_457_seed20260825_ex32

> <source_seed>
20260825

> <vina_pose_rank>
13

> <vina_affinity_kcal_mol>
-6.8789999999999996

> <vina_rmsd_to_crystal_angstrom>
7.1159999999999997

> <minimizedAffinity>
-6.66960

> <CNNscore>
0.2034536302

> <CNNaffinity>
4.8789467812

> <CNN_VS>
0.9926394224

> <CNNaffinity_variance>
0.7497829795

$$$$
BACE1_verubecestat__alternate_457_seed20260825_ex32__pose14


 31 33  0  0  0  0  0  0  0  0999 V2000
   23.7520   12.2810   20.9750 C   0  0  0  0  0  0  0  0  0  0  0  0
   23.5030   11.0280   20.4180 C   0  0  0  0  0  0  0  0  0  0  0  0
   22.8250   10.0420   21.0980 C   0  0  0  0  0  0  0  0  0  0  0  0
   22.3790   10.2620   22.3950 C   0  0  0  0  0  0  0  0  0  0  0  0
   22.6140   11.5010   22.9630 C   0  0  0  0  0  0  0  0  0  0  0  0
   23.2670   12.4920   22.2560 C   0  0  0  0  0  0  0  0  0  0  0  0
   23.4600   13.7100   22.8250 F   0  0  0  0  0  0  0  0  0  0  0  0
   28.1200   13.0630   22.5420 C   0  0  0  0  0  0  0  0  0  0  0  0
   26.9500   13.2300   21.6580 N   0  0  0  0  0  0  0  0  0  0  0  0
   26.0620   14.3250   21.7550 C   0  0  0  0  0  0  0  0  0  0  0  0
   26.4660   15.2920   22.6360 N   0  0  0  0  0  0  0  0  0  0  0  0
   24.9710   14.4320   21.0610 N   0  0  0  0  0  0  0  0  0  0  0  0
   24.5010   13.3520   20.1960 C   0  0  0  0  0  0  0  0  0  0  0  0
   23.5180   14.0630   19.2620 C   0  0  0  0  0  0  0  0  0  0  0  0
   25.6380   12.8420   19.3380 C   0  0  0  0  0  0  0  0  0  0  0  0
   26.9080   12.1180   20.3450 S   0  0  0  0  0  0  0  0  0  0  0  0
   28.1530   12.2700   19.6140 O   0  0  0  0  0  0  0  0  0  0  0  0
   26.4720   10.8960   20.9460 O   0  0  0  0  0  0  0  0  0  0  0  0
   25.9130   16.0950   22.7720 H   0  0  0  0  0  0  0  0  0  0  0  0
   27.3100   15.1850   23.1320 H   0  0  0  0  0  0  0  0  0  0  0  0
   22.6440    8.8260   20.4260 N   0  0  0  0  0  0  0  0  0  0  0  0
   21.8830    8.5760   19.2970 C   0  0  0  0  0  0  0  0  0  0  0  0
   21.1240    9.3780   18.7680 O   0  0  0  0  0  0  0  0  0  0  0  0
   23.1190    8.0510   20.8040 H   0  0  0  0  0  0  0  0  0  0  0  0
   22.0610    7.2310   18.6990 C   0  0  0  0  0  0  0  0  0  0  0  0
   22.1810    6.1210   19.5180 C   0  0  0  0  0  0  0  0  0  0  0  0
   22.3470    4.8910   18.9060 C   0  0  0  0  0  0  0  0  0  0  0  0
   22.3830    4.8070   17.5280 C   0  0  0  0  0  0  0  0  0  0  0  0
   22.5510    3.6360   16.8900 F   0  0  0  0  0  0  0  0  0  0  0  0
   22.2600    5.9680   16.7990 C   0  0  0  0  0  0  0  0  0  0  0  0
   22.1040    7.1770   17.3640 N   0  0  0  0  0  0  0  0  0  0  0  0
  8  9  1  0
  9 10  1  0
 10 11  1  0
 10 12  2  0
 12 13  1  0
 13 14  1  0
 13  1  1  0
  1  2  2  0
  2  3  1  0
  3 21  1  0
 21 22  1  0
 22 23  2  0
 22 25  1  0
 25 26  2  0
 26 27  1  0
 27 28  2  0
 28 29  1  0
 28 30  1  0
 30 31  2  0
  3  4  2  0
  4  5  1  0
  5  6  2  0
  6  7  1  0
 13 15  1  0
 15 16  1  0
 16 17  2  0
 16 18  2  0
 16  9  1  0
  6  1  1  0
 31 25  1  0
 11 19  1  0
 11 20  1  0
 21 24  1  0
M  END
> <meeko>
{"is_sidechain": false}

> <source_group>
BACE1-457

> <source_system>
BACE1_verubecestat

> <source_run>
alternate_457_seed20260825_ex32

> <source_seed>
20260825

> <vina_pose_rank>
14

> <vina_affinity_kcal_mol>
-6.8680000000000003

> <vina_rmsd_to_crystal_angstrom>
6.8456999999999999

> <minimizedAffinity>
-7.37250

> <CNNscore>
0.0504000038

> <CNNaffinity>
4.2048850060

> <CNN_VS>
0.2119262218

> <CNNaffinity_variance>
1.3769260645

$$$$
BACE1_verubecestat__alternate_457_seed20260825_ex32__pose15


 31 33  0  0  0  0  0  0  0  0999 V2000
   23.4510   11.8470   19.4520 C   0  0  0  0  0  0  0  0  0  0  0  0
   23.4850   10.6190   18.7950 C   0  0  0  0  0  0  0  0  0  0  0  0
   22.9250    9.4810   19.3300 C   0  0  0  0  0  0  0  0  0  0  0  0
   22.3150    9.5170   20.5780 C   0  0  0  0  0  0  0  0  0  0  0  0
   22.2690   10.7290   21.2440 C   0  0  0  0  0  0  0  0  0  0  0  0
   22.8060   11.8690   20.6800 C   0  0  0  0  0  0  0  0  0  0  0  0
   22.7220   13.0520   21.3410 F   0  0  0  0  0  0  0  0  0  0  0  0
   21.5870   13.0410   15.2990 C   0  0  0  0  0  0  0  0  0  0  0  0
   22.4730   13.1730   16.4720 N   0  0  0  0  0  0  0  0  0  0  0  0
   23.8400   12.8190   16.4490 C   0  0  0  0  0  0  0  0  0  0  0  0
   24.3070   12.4880   15.2040 N   0  0  0  0  0  0  0  0  0  0  0  0
   24.6060   12.8250   17.4960 N   0  0  0  0  0  0  0  0  0  0  0  0
   24.0760   13.0880   18.8330 C   0  0  0  0  0  0  0  0  0  0  0  0
   25.3280   13.4610   19.6310 C   0  0  0  0  0  0  0  0  0  0  0  0
   23.1850   14.3100   18.8080 C   0  0  0  0  0  0  0  0  0  0  0  0
   21.7610   14.0280   17.7860 S   0  0  0  0  0  0  0  0  0  0  0  0
   21.3490   15.3250   17.2830 O   0  0  0  0  0  0  0  0  0  0  0  0
   20.8720   13.0740   18.3730 O   0  0  0  0  0  0  0  0  0  0  0  0
   25.2490   12.2270   15.0860 H   0  0  0  0  0  0  0  0  0  0  0  0
   23.7010   12.5120   14.4290 H   0  0  0  0  0  0  0  0  0  0  0  0
   23.0310    8.3100   18.5670 N   0  0  0  0  0  0  0  0  0  0  0  0
   22.2200    7.8870   17.5300 C   0  0  0  0  0  0  0  0  0  0  0  0
   21.1750    8.4250   17.1890 O   0  0  0  0  0  0  0  0  0  0  0  0
   23.7790    7.7130   18.8000 H   0  0  0  0  0  0  0  0  0  0  0  0
   22.7150    6.7070   16.7800 C   0  0  0  0  0  0  0  0  0  0  0  0
   22.7440    5.4640   17.3890 C   0  0  0  0  0  0  0  0  0  0  0  0
   23.2170    4.3980   16.6440 C   0  0  0  0  0  0  0  0  0  0  0  0
   23.6340    4.6000   15.3420 C   0  0  0  0  0  0  0  0  0  0  0  0
   24.1090    3.5980   14.5840 F   0  0  0  0  0  0  0  0  0  0  0  0
   23.5720    5.8750   14.8260 C   0  0  0  0  0  0  0  0  0  0  0  0
   23.1240    6.9290   15.5270 N   0  0  0  0  0  0  0  0  0  0  0  0
  8  9  1  0
  9 10  1  0
 10 11  1  0
 10 12  2  0
 12 13  1  0
 13 14  1  0
 13  1  1  0
  1  2  2  0
  2  3  1  0
  3 21  1  0
 21 22  1  0
 22 23  2  0
 22 25  1  0
 25 26  2  0
 26 27  1  0
 27 28  2  0
 28 29  1  0
 28 30  1  0
 30 31  2  0
  3  4  2  0
  4  5  1  0
  5  6  2  0
  6  7  1  0
 13 15  1  0
 15 16  1  0
 16 17  2  0
 16 18  2  0
 16  9  1  0
  6  1  1  0
 31 25  1  0
 11 19  1  0
 11 20  1  0
 21 24  1  0
M  END
> <meeko>
{"is_sidechain": false}

> <source_group>
BACE1-457

> <source_system>
BACE1_verubecestat

> <source_run>
alternate_457_seed20260825_ex32

> <source_seed>
20260825

> <vina_pose_rank>
15

> <vina_affinity_kcal_mol>
-6.7949999999999999

> <vina_rmsd_to_crystal_angstrom>
7.3869999999999996

> <minimizedAffinity>
-6.59910

> <CNNscore>
0.1412430704

> <CNNaffinity>
4.5643954277

> <CNN_VS>
0.6446892023

> <CNNaffinity_variance>
0.5331024528

$$$$
BACE1_verubecestat__alternate_457_seed20260825_ex32__pose16


 31 33  0  0  0  0  0  0  0  0999 V2000
   25.3260   12.8470   22.8790 C   0  0  0  0  0  0  0  0  0  0  0  0
   24.8200   11.8060   22.1030 C   0  0  0  0  0  0  0  0  0  0  0  0
   23.5070   11.4020   22.1780 C   0  0  0  0  0  0  0  0  0  0  0  0
   22.6310   12.0180   23.0640 C   0  0  0  0  0  0  0  0  0  0  0  0
   23.1150   13.0560   23.8400 C   0  0  0  0  0  0  0  0  0  0  0  0
   24.4270   13.4720   23.7310 C   0  0  0  0  0  0  0  0  0  0  0  0
   24.8690   14.5120   24.4820 F   0  0  0  0  0  0  0  0  0  0  0  0
   26.6830   13.8740   18.4910 C   0  0  0  0  0  0  0  0  0  0  0  0
   26.8280   13.7280   19.9530 N   0  0  0  0  0  0  0  0  0  0  0  0
   27.4880   12.6340   20.5560 C   0  0  0  0  0  0  0  0  0  0  0  0
   28.1130   11.8020   19.6650 N   0  0  0  0  0  0  0  0  0  0  0  0
   27.5310   12.4330   21.8370 N   0  0  0  0  0  0  0  0  0  0  0  0
   26.7820   13.2720   22.7710 C   0  0  0  0  0  0  0  0  0  0  0  0
   27.4770   13.0010   24.1080 C   0  0  0  0  0  0  0  0  0  0  0  0
   27.0010   14.7330   22.4460 C   0  0  0  0  0  0  0  0  0  0  0  0
   26.3500   15.1230   20.8410 S   0  0  0  0  0  0  0  0  0  0  0  0
   27.1300   16.2400   20.3390 O   0  0  0  0  0  0  0  0  0  0  0  0
   24.9220   15.0670   20.8230 O   0  0  0  0  0  0  0  0  0  0  0  0
   28.6000   11.0110   19.9890 H   0  0  0  0  0  0  0  0  0  0  0  0
   28.0740   11.9960   18.7000 H   0  0  0  0  0  0  0  0  0  0  0  0
   23.1270   10.3410   21.3450 N   0  0  0  0  0  0  0  0  0  0  0  0
   22.4910   10.4000   20.1190 C   0  0  0  0  0  0  0  0  0  0  0  0
   22.0310   11.4150   19.6120 O   0  0  0  0  0  0  0  0  0  0  0  0
   23.3420    9.4390   21.6760 H   0  0  0  0  0  0  0  0  0  0  0  0
   22.4140    9.1140   19.3830 C   0  0  0  0  0  0  0  0  0  0  0  0
   23.1940    8.9150   18.2570 C   0  0  0  0  0  0  0  0  0  0  0  0
   23.0810    7.6980   17.6080 C   0  0  0  0  0  0  0  0  0  0  0  0
   22.2160    6.7370   18.0940 C   0  0  0  0  0  0  0  0  0  0  0  0
   22.0660    5.5450   17.4920 F   0  0  0  0  0  0  0  0  0  0  0  0
   21.4770    7.0310   19.2180 C   0  0  0  0  0  0  0  0  0  0  0  0
   21.5610    8.2050   19.8650 N   0  0  0  0  0  0  0  0  0  0  0  0
  8  9  1  0
  9 10  1  0
 10 11  1  0
 10 12  2  0
 12 13  1  0
 13 14  1  0
 13  1  1  0
  1  2  2  0
  2  3  1  0
  3 21  1  0
 21 22  1  0
 22 23  2  0
 22 25  1  0
 25 26  2  0
 26 27  1  0
 27 28  2  0
 28 29  1  0
 28 30  1  0
 30 31  2  0
  3  4  2  0
  4  5  1  0
  5  6  2  0
  6  7  1  0
 13 15  1  0
 15 16  1  0
 16 17  2  0
 16 18  2  0
 16  9  1  0
  6  1  1  0
 31 25  1  0
 11 19  1  0
 11 20  1  0
 21 24  1  0
M  END
> <meeko>
{"is_sidechain": false}

> <source_group>
BACE1-457

> <source_system>
BACE1_verubecestat

> <source_run>
alternate_457_seed20260825_ex32

> <source_seed>
20260825

> <vina_pose_rank>
16

> <vina_affinity_kcal_mol>
-6.7649999999999997

> <vina_rmsd_to_crystal_angstrom>
6.9214000000000002

> <minimizedAffinity>
-6.56481

> <CNNscore>
0.0390355289

> <CNNaffinity>
3.9789993763

> <CNN_VS>
0.1553223431

> <CNNaffinity_variance>
1.3355822563

$$$$
BACE1_verubecestat__alternate_457_seed20260825_ex32__pose17


 31 33  0  0  0  0  0  0  0  0999 V2000
   25.4360   11.4960   19.3730 C   0  0  0  0  0  0  0  0  0  0  0  0
   24.6920   11.2350   20.5230 C   0  0  0  0  0  0  0  0  0  0  0  0
   25.0440   11.7330   21.7570 C   0  0  0  0  0  0  0  0  0  0  0  0
   26.1860   12.5100   21.9020 C   0  0  0  0  0  0  0  0  0  0  0  0
   26.9350   12.7820   20.7710 C   0  0  0  0  0  0  0  0  0  0  0  0
   26.5530   12.3020   19.5340 C   0  0  0  0  0  0  0  0  0  0  0  0
   27.2890   12.6080   18.4350 F   0  0  0  0  0  0  0  0  0  0  0  0
   21.0940   12.7430   18.0530 C   0  0  0  0  0  0  0  0  0  0  0  0
   22.4150   12.0980   17.9220 N   0  0  0  0  0  0  0  0  0  0  0  0
   22.6200   10.7140   18.1170 C   0  0  0  0  0  0  0  0  0  0  0  0
   21.4640   10.0000   18.2880 N   0  0  0  0  0  0  0  0  0  0  0  0
   23.7880   10.1490   18.1120 N   0  0  0  0  0  0  0  0  0  0  0  0
   25.0190   10.9330   18.0230 C   0  0  0  0  0  0  0  0  0  0  0  0
   26.0550    9.8950   17.5800 C   0  0  0  0  0  0  0  0  0  0  0  0
   24.9080   11.9510   16.9110 C   0  0  0  0  0  0  0  0  0  0  0  0
   23.6280   13.1290   17.2650 S   0  0  0  0  0  0  0  0  0  0  0  0
   23.1380   13.6060   15.9840 O   0  0  0  0  0  0  0  0  0  0  0  0
   23.9810   13.9800   18.3580 O   0  0  0  0  0  0  0  0  0  0  0  0
   21.5040    9.0270   18.4310 H   0  0  0  0  0  0  0  0  0  0  0  0
   20.5940   10.4600   18.2670 H   0  0  0  0  0  0  0  0  0  0  0  0
   24.2120   11.3940   22.8310 N   0  0  0  0  0  0  0  0  0  0  0  0
   23.3470   12.2110   23.5380 C   0  0  0  0  0  0  0  0  0  0  0  0
   23.2650   13.4260   23.4120 O   0  0  0  0  0  0  0  0  0  0  0  0
   24.2460   10.4530   23.1210 H   0  0  0  0  0  0  0  0  0  0  0  0
   22.4450   11.5110   24.4840 C   0  0  0  0  0  0  0  0  0  0  0  0
   22.3560   10.1300   24.4610 C   0  0  0  0  0  0  0  0  0  0  0  0
   21.4970    9.5290   25.3640 C   0  0  0  0  0  0  0  0  0  0  0  0
   20.7720   10.3070   26.2460 C   0  0  0  0  0  0  0  0  0  0  0  0
   19.9200    9.7690   27.1340 F   0  0  0  0  0  0  0  0  0  0  0  0
   20.9240   11.6740   26.1890 C   0  0  0  0  0  0  0  0  0  0  0  0
   21.7450   12.2860   25.3190 N   0  0  0  0  0  0  0  0  0  0  0  0
  8  9  1  0
  9 10  1  0
 10 11  1  0
 10 12  2  0
 12 13  1  0
 13 14  1  0
 13  1  1  0
  1  2  2  0
  2  3  1  0
  3 21  1  0
 21 22  1  0
 22 23  2  0
 22 25  1  0
 25 26  2  0
 26 27  1  0
 27 28  2  0
 28 29  1  0
 28 30  1  0
 30 31  2  0
  3  4  2  0
  4  5  1  0
  5  6  2  0
  6  7  1  0
 13 15  1  0
 15 16  1  0
 16 17  2  0
 16 18  2  0
 16  9  1  0
  6  1  1  0
 31 25  1  0
 11 19  1  0
 11 20  1  0
 21 24  1  0
M  END
> <meeko>
{"is_sidechain": false}

> <source_group>
BACE1-457

> <source_system>
BACE1_verubecestat

> <source_run>
alternate_457_seed20260825_ex32

> <source_seed>
20260825

> <vina_pose_rank>
17

> <vina_affinity_kcal_mol>
-6.7489999999999997

> <vina_rmsd_to_crystal_angstrom>
6.7324999999999999

> <minimizedAffinity>
-6.53354

> <CNNscore>
0.0458992235

> <CNNaffinity>
4.4653201103

> <CNN_VS>
0.2049547285

> <CNNaffinity_variance>
0.5989715457

$$$$
BACE1_verubecestat__alternate_457_seed20260825_ex32__pose18


 31 33  0  0  0  0  0  0  0  0999 V2000
   21.5800   11.5550   17.1820 C   0  0  0  0  0  0  0  0  0  0  0  0
   21.4940   10.2260   17.5940 C   0  0  0  0  0  0  0  0  0  0  0  0
   21.2220    9.2000   16.7170 C   0  0  0  0  0  0  0  0  0  0  0  0
   20.9980    9.4640   15.3720 C   0  0  0  0  0  0  0  0  0  0  0  0
   21.0830   10.7780   14.9450 C   0  0  0  0  0  0  0  0  0  0  0  0
   21.3880   11.7930   15.8290 C   0  0  0  0  0  0  0  0  0  0  0  0
   21.4940   13.0700   15.3790 F   0  0  0  0  0  0  0  0  0  0  0  0
   25.3500   10.7180   19.8710 C   0  0  0  0  0  0  0  0  0  0  0  0
   24.2020   11.4880   19.3520 N   0  0  0  0  0  0  0  0  0  0  0  0
   22.9740   11.5980   20.0410 C   0  0  0  0  0  0  0  0  0  0  0  0
   22.9920   11.0570   21.2980 N   0  0  0  0  0  0  0  0  0  0  0  0
   21.9220   12.1780   19.5510 N   0  0  0  0  0  0  0  0  0  0  0  0
   21.8850   12.6670   18.1740 C   0  0  0  0  0  0  0  0  0  0  0  0
   20.7110   13.6500   18.1900 C   0  0  0  0  0  0  0  0  0  0  0  0
   23.1310   13.4690   17.8740 C   0  0  0  0  0  0  0  0  0  0  0  0
   24.5760   12.4420   17.9680 S   0  0  0  0  0  0  0  0  0  0  0  0
   25.6800   13.3120   18.3310 O   0  0  0  0  0  0  0  0  0  0  0  0
   24.6190   11.4920   16.9000 O   0  0  0  0  0  0  0  0  0  0  0  0
   22.1820   11.0850   21.8580 H   0  0  0  0  0  0  0  0  0  0  0  0
   23.8150   10.6410   21.6440 H   0  0  0  0  0  0  0  0  0  0  0  0
   21.1610    7.9100   17.2610 N   0  0  0  0  0  0  0  0  0  0  0  0
   21.8570    6.7810   16.8680 C   0  0  0  0  0  0  0  0  0  0  0  0
   22.5630    6.7000   15.8710 O   0  0  0  0  0  0  0  0  0  0  0  0
   20.5450    7.7930   18.0200 H   0  0  0  0  0  0  0  0  0  0  0  0
   21.7350    5.6140   17.7750 C   0  0  0  0  0  0  0  0  0  0  0  0
   22.1140    5.7280   19.1020 C   0  0  0  0  0  0  0  0  0  0  0  0
   21.9810    4.6070   19.9030 C   0  0  0  0  0  0  0  0  0  0  0  0
   21.4810    3.4350   19.3690 C   0  0  0  0  0  0  0  0  0  0  0  0
   21.3430    2.3200   20.1060 F   0  0  0  0  0  0  0  0  0  0  0  0
   21.1380    3.4190   18.0360 C   0  0  0  0  0  0  0  0  0  0  0  0
   21.2610    4.4880   17.2330 N   0  0  0  0  0  0  0  0  0  0  0  0
  8  9  1  0
  9 10  1  0
 10 11  1  0
 10 12  2  0
 12 13  1  0
 13 14  1  0
 13  1  1  0
  1  2  2  0
  2  3  1  0
  3 21  1  0
 21 22  1  0
 22 23  2  0
 22 25  1  0
 25 26  2  0
 26 27  1  0
 27 28  2  0
 28 29  1  0
 28 30  1  0
 30 31  2  0
  3  4  2  0
  4  5  1  0
  5  6  2  0
  6  7  1  0
 13 15  1  0
 15 16  1  0
 16 17  2  0
 16 18  2  0
 16  9  1  0
  6  1  1  0
 31 25  1  0
 11 19  1  0
 11 20  1  0
 21 24  1  0
M  END
> <meeko>
{"is_sidechain": false}

> <source_group>
BACE1-457

> <source_system>
BACE1_verubecestat

> <source_run>
alternate_457_seed20260825_ex32

> <source_seed>
20260825

> <vina_pose_rank>
18

> <vina_affinity_kcal_mol>
-6.7320000000000002

> <vina_rmsd_to_crystal_angstrom>
7.1790000000000003

> <minimizedAffinity>
-6.68737

> <CNNscore>
0.1561872512

> <CNNaffinity>
4.9895491600

> <CNN_VS>
0.7793039680

> <CNNaffinity_variance>
0.6941780448

$$$$
BACE1_verubecestat__alternate_457_seed20260825_ex32__pose19


 31 33  0  0  0  0  0  0  0  0999 V2000
   23.9810   12.2090   19.8380 C   0  0  0  0  0  0  0  0  0  0  0  0
   23.8050   10.8370   19.6630 C   0  0  0  0  0  0  0  0  0  0  0  0
   22.8280   10.3180   18.8450 C   0  0  0  0  0  0  0  0  0  0  0  0
   21.9540   11.1610   18.1710 C   0  0  0  0  0  0  0  0  0  0  0  0
   22.1160   12.5260   18.3290 C   0  0  0  0  0  0  0  0  0  0  0  0
   23.1210   13.0340   19.1280 C   0  0  0  0  0  0  0  0  0  0  0  0
   23.2770   14.3770   19.2430 F   0  0  0  0  0  0  0  0  0  0  0  0
   28.3110   10.7830   18.6670 C   0  0  0  0  0  0  0  0  0  0  0  0
   27.2920   11.5230   19.4380 N   0  0  0  0  0  0  0  0  0  0  0  0
   26.8350   11.1070   20.7080 C   0  0  0  0  0  0  0  0  0  0  0  0
   27.5280   10.0460   21.2270 N   0  0  0  0  0  0  0  0  0  0  0  0
   25.8660   11.6820   21.3500 N   0  0  0  0  0  0  0  0  0  0  0  0
   25.0730   12.7520   20.7470 C   0  0  0  0  0  0  0  0  0  0  0  0
   24.4190   13.4200   21.9590 C   0  0  0  0  0  0  0  0  0  0  0  0
   25.9830   13.7790   20.1120 C   0  0  0  0  0  0  0  0  0  0  0  0
   26.9000   13.0610   18.7720 S   0  0  0  0  0  0  0  0  0  0  0  0
   28.1370   13.8130   18.6670 O   0  0  0  0  0  0  0  0  0  0  0  0
   26.0540   12.7480   17.6620 O   0  0  0  0  0  0  0  0  0  0  0  0
   27.2840    9.6840   22.1100 H   0  0  0  0  0  0  0  0  0  0  0  0
   28.2700    9.6460   20.7190 H   0  0  0  0  0  0  0  0  0  0  0  0
   22.7570    8.9210   18.7600 N   0  0  0  0  0  0  0  0  0  0  0  0
   22.0150    8.0520   19.5400 C   0  0  0  0  0  0  0  0  0  0  0  0
   21.3830    8.3670   20.5400 O   0  0  0  0  0  0  0  0  0  0  0  0
   23.3040    8.5060   18.0550 H   0  0  0  0  0  0  0  0  0  0  0  0
   21.9860    6.6460   19.0680 C   0  0  0  0  0  0  0  0  0  0  0  0
   22.7660    6.2620   17.9920 C   0  0  0  0  0  0  0  0  0  0  0  0
   22.6990    4.9390   17.5930 C   0  0  0  0  0  0  0  0  0  0  0  0
   21.8750    4.0580   18.2680 C   0  0  0  0  0  0  0  0  0  0  0  0
   21.7700    2.7670   17.9110 F   0  0  0  0  0  0  0  0  0  0  0  0
   21.1320    4.5360   19.3230 C   0  0  0  0  0  0  0  0  0  0  0  0
   21.1730    5.8160   19.7300 N   0  0  0  0  0  0  0  0  0  0  0  0
  8  9  1  0
  9 10  1  0
 10 11  1  0
 10 12  2  0
 12 13  1  0
 13 14  1  0
 13  1  1  0
  1  2  2  0
  2  3  1  0
  3 21  1  0
 21 22  1  0
 22 23  2  0
 22 25  1  0
 25 26  2  0
 26 27  1  0
 27 28  2  0
 28 29  1  0
 28 30  1  0
 30 31  2  0
  3  4  2  0
  4  5  1  0
  5  6  2  0
  6  7  1  0
 13 15  1  0
 15 16  1  0
 16 17  2  0
 16 18  2  0
 16  9  1  0
  6  1  1  0
 31 25  1  0
 11 19  1  0
 11 20  1  0
 21 24  1  0
M  END
> <meeko>
{"is_sidechain": false}

> <source_group>
BACE1-457

> <source_system>
BACE1_verubecestat

> <source_run>
alternate_457_seed20260825_ex32

> <source_seed>
20260825

> <vina_pose_rank>
19

> <vina_affinity_kcal_mol>
-6.6449999999999996

> <vina_rmsd_to_crystal_angstrom>
6.9527000000000001

> <minimizedAffinity>
-6.44025

> <CNNscore>
0.1143212616

> <CNNaffinity>
4.9227604866

> <CNN_VS>
0.5627762079

> <CNNaffinity_variance>
0.4556844532

$$$$
BACE1_verubecestat__alternate_457_seed20260825_ex32__pose20


 31 33  0  0  0  0  0  0  0  0999 V2000
   21.7120    8.6250   17.3190 C   0  0  0  0  0  0  0  0  0  0  0  0
   21.9490    9.4280   18.4340 C   0  0  0  0  0  0  0  0  0  0  0  0
   21.9470    8.9270   19.7160 C   0  0  0  0  0  0  0  0  0  0  0  0
   21.6810    7.5820   19.9450 C   0  0  0  0  0  0  0  0  0  0  0  0
   21.4480    6.7700   18.8490 C   0  0  0  0  0  0  0  0  0  0  0  0
   21.4850    7.2800   17.5670 C   0  0  0  0  0  0  0  0  0  0  0  0
   21.2810    6.4560   16.5070 F   0  0  0  0  0  0  0  0  0  0  0  0
   25.6760   10.9270   16.2520 C   0  0  0  0  0  0  0  0  0  0  0  0
   24.3330   10.3630   16.0130 N   0  0  0  0  0  0  0  0  0  0  0  0
   23.1570   11.1450   16.0210 C   0  0  0  0  0  0  0  0  0  0  0  0
   23.3860   12.4910   16.1180 N   0  0  0  0  0  0  0  0  0  0  0  0
   21.9610   10.6510   15.9220 N   0  0  0  0  0  0  0  0  0  0  0  0
   21.7240    9.2090   15.9140 C   0  0  0  0  0  0  0  0  0  0  0  0
   20.3170    9.0960   15.3200 C   0  0  0  0  0  0  0  0  0  0  0  0
   22.6700    8.5320   14.9470 C   0  0  0  0  0  0  0  0  0  0  0  0
   24.3530    8.7270   15.4760 S   0  0  0  0  0  0  0  0  0  0  0  0
   25.1710    8.6780   14.2780 O   0  0  0  0  0  0  0  0  0  0  0  0
   24.6230    7.9800   16.6640 O   0  0  0  0  0  0  0  0  0  0  0  0
   22.6280   13.1200   16.1310 H   0  0  0  0  0  0  0  0  0  0  0  0
   24.3080   12.8310   16.1740 H   0  0  0  0  0  0  0  0  0  0  0  0
   22.1960    9.8410   20.7480 N   0  0  0  0  0  0  0  0  0  0  0  0
   23.3470    9.9900   21.5010 C   0  0  0  0  0  0  0  0  0  0  0  0
   24.3120    9.2380   21.4680 O   0  0  0  0  0  0  0  0  0  0  0  0
   21.4580   10.4560   20.9640 H   0  0  0  0  0  0  0  0  0  0  0  0
   23.3800   11.1870   22.3760 C   0  0  0  0  0  0  0  0  0  0  0  0
   22.5290   11.2710   23.4650 C   0  0  0  0  0  0  0  0  0  0  0  0
   22.6020   12.4110   24.2460 C   0  0  0  0  0  0  0  0  0  0  0  0
   23.5030   13.4080   23.9260 C   0  0  0  0  0  0  0  0  0  0  0  0
   23.6020   14.5370   24.6490 F   0  0  0  0  0  0  0  0  0  0  0  0
   24.3030   13.2350   22.8200 C   0  0  0  0  0  0  0  0  0  0  0  0
   24.2520   12.1430   22.0390 N   0  0  0  0  0  0  0  0  0  0  0  0
  8  9  1  0
  9 10  1  0
 10 11  1  0
 10 12  2  0
 12 13  1  0
 13 14  1  0
 13  1  1  0
  1  2  2  0
  2  3  1  0
  3 21  1  0
 21 22  1  0
 22 23  2  0
 22 25  1  0
 25 26  2  0
 26 27  1  0
 27 28  2  0
 28 29  1  0
 28 30  1  0
 30 31  2  0
  3  4  2  0
  4  5  1  0
  5  6  2  0
  6  7  1  0
 13 15  1  0
 15 16  1  0
 16 17  2  0
 16 18  2  0
 16  9  1  0
  6  1  1  0
 31 25  1  0
 11 19  1  0
 11 20  1  0
 21 24  1  0
M  END
> <meeko>
{"is_sidechain": false}

> <source_group>
BACE1-457

> <source_system>
BACE1_verubecestat

> <source_run>
alternate_457_seed20260825_ex32

> <source_seed>
20260825

> <vina_pose_rank>
20

> <vina_affinity_kcal_mol>
-6.5819999999999999

> <vina_rmsd_to_crystal_angstrom>
7.0358000000000001

> <minimizedAffinity>
-6.39562

> <CNNscore>
0.0710425675

> <CNNaffinity>
4.4400267601

> <CNN_VS>
0.3154309094

> <CNNaffinity_variance>
0.5462512374

$$$$
