
     RDKit          3D

 41 44  0  0  0  0  0  0  0  0999 V2000
   -1.0982   -2.8260    3.6823 N   0  0  0  0  0  0  0  0  0  0  0  0
   -1.6542   -2.4921    2.7204 C   0  0  0  0  0  0  0  0  0  0  0  0
   -2.3938   -2.0455    1.5310 C   0  0  0  0  0  0  0  0  0  0  0  0
   -1.9045   -0.6686    1.0517 C   0  0  2  0  0  0  0  0  0  0  0  0
   -2.8211   -0.0712   -0.0405 C   0  0  0  0  0  0  0  0  0  0  0  0
   -4.2653    0.1626    0.4156 C   0  0  0  0  0  0  0  0  0  0  0  0
   -4.8248    1.2272   -0.5269 C   0  0  0  0  0  0  0  0  0  0  0  0
   -3.6258    1.8400   -1.2441 C   0  0  0  0  0  0  0  0  0  0  0  0
   -2.4032    1.3305   -0.4960 C   0  0  0  0  0  0  0  0  0  0  0  0
   -0.5218   -0.7531    0.5768 N   0  0  0  0  0  0  0  0  0  0  0  0
    0.5438   -0.0375    1.0354 C   0  0  0  0  0  0  0  0  0  0  0  0
    1.6369   -0.4359    0.2903 C   0  0  0  0  0  0  0  0  0  0  0  0
    2.9738    0.0823    0.4771 C   0  0  0  0  0  0  0  0  0  0  0  0
    3.2636    0.6607    1.6716 N   0  0  0  0  0  0  0  0  0  0  0  0
    4.5101    1.1265    1.8626 C   0  0  0  0  0  0  0  0  0  0  0  0
    5.5388    1.1091    1.0002 N   0  0  0  0  0  0  0  0  0  0  0  0
    5.1950    0.5474   -0.1678 C   0  0  0  0  0  0  0  0  0  0  0  0
    6.0429    0.4080   -1.2317 N   0  0  0  0  0  0  0  0  0  0  0  0
    5.3807   -0.1829   -2.2755 C   0  0  0  0  0  0  0  0  0  0  0  0
    4.0869   -0.4305   -1.8644 C   0  0  0  0  0  0  0  0  0  0  0  0
    3.9586    0.0187   -0.5167 C   0  0  0  0  0  0  0  0  0  0  0  0
    1.1118   -1.4233   -0.5715 C   0  0  0  0  0  0  0  0  0  0  0  0
   -0.2035   -1.6054   -0.4153 N   0  0  0  0  0  0  0  0  0  0  0  0
   -3.4543   -1.9954    1.8015 H   0  0  0  0  0  0  0  0  0  0  0  0
   -2.3104   -2.7964    0.7366 H   0  0  0  0  0  0  0  0  0  0  0  0
   -1.8877    0.0203    1.9085 H   0  0  0  0  0  0  0  0  0  0  0  0
   -2.8341   -0.7349   -0.9170 H   0  0  0  0  0  0  0  0  0  0  0  0
   -4.8644   -0.7528    0.3792 H   0  0  0  0  0  0  0  0  0  0  0  0
   -4.2915    0.5370    1.4463 H   0  0  0  0  0  0  0  0  0  0  0  0
   -5.5183    0.7874   -1.2520 H   0  0  0  0  0  0  0  0  0  0  0  0
   -5.3798    1.9843    0.0375 H   0  0  0  0  0  0  0  0  0  0  0  0
   -3.6004    1.4908   -2.2833 H   0  0  0  0  0  0  0  0  0  0  0  0
   -3.6697    2.9331   -1.2637 H   0  0  0  0  0  0  0  0  0  0  0  0
   -1.5169    1.3202   -1.1376 H   0  0  0  0  0  0  0  0  0  0  0  0
   -2.1947    1.9761    0.3660 H   0  0  0  0  0  0  0  0  0  0  0  0
    0.4528    0.6823    1.8379 H   0  0  0  0  0  0  0  0  0  0  0  0
    4.7081    1.5709    2.8334 H   0  0  0  0  0  0  0  0  0  0  0  0
    7.0053    0.7141   -1.2258 H   0  0  0  0  0  0  0  0  0  0  0  0
    5.8814   -0.3698   -3.2165 H   0  0  0  0  0  0  0  0  0  0  0  0
    3.3208   -0.8787   -2.4824 H   0  0  0  0  0  0  0  0  0  0  0  0
    1.6272   -2.0296   -1.3038 H   0  0  0  0  0  0  0  0  0  0  0  0
  1  2  3  0
  2  3  1  0
  3  4  1  0
  4  5  1  0
  5  6  1  0
  6  7  1  0
  7  8  1  0
  8  9  1  0
  4 10  1  0
 10 11  1  0
 11 12  2  0
 12 13  1  0
 13 14  1  0
 14 15  2  0
 15 16  1  0
 16 17  2  0
 17 18  1  0
 18 19  1  0
 19 20  2  0
 20 21  1  0
 12 22  1  0
 22 23  2  0
  9  5  1  0
 23 10  1  0
 21 13  2  0
 21 17  1  0
  3 24  1  0
  3 25  1  0
  4 26  1  1
  5 27  1  0
  6 28  1  0
  6 29  1  0
  7 30  1  0
  7 31  1  0
  8 32  1  0
  8 33  1  0
  9 34  1  0
  9 35  1  0
 11 36  1  0
 15 37  1  0
 18 38  1  0
 19 39  1  0
 20 40  1  0
 22 41  1  0
M  END
$$$$
