
     RDKit          3D

 43 46  0  0  0  0  0  0  0  0999 V2000
   -4.2022    2.0195   -0.9205 N   0  0  0  0  0  0  0  0  0  0  0  0
   -5.4004    1.4390   -0.5393 C   0  0  0  0  0  0  0  0  0  0  0  0
   -6.5114    2.1811   -0.7273 N   0  0  0  0  0  0  0  0  0  0  0  0
   -7.7079    1.6595   -0.3969 C   0  0  0  0  0  0  0  0  0  0  0  0
   -7.9602    0.4456    0.1024 N   0  0  0  0  0  0  0  0  0  0  0  0
   -6.8279   -0.2520    0.2742 C   0  0  0  0  0  0  0  0  0  0  0  0
   -6.7954   -1.5232    0.7553 O   0  0  0  0  0  0  0  0  0  0  0  0
   -5.4882   -1.9707    0.8084 N   0  0  0  0  0  0  0  0  0  0  0  0
   -4.7269   -0.9493    0.3783 C   0  0  0  0  0  0  0  0  0  0  0  0
   -3.2744   -1.0842    0.3365 C   0  0  0  0  0  0  0  0  0  0  0  0
   -2.4415   -0.0807    0.8416 C   0  0  0  0  0  0  0  0  0  0  0  0
   -1.0480   -0.2157    0.7879 C   0  0  0  0  0  0  0  0  0  0  0  0
   -0.4655   -1.3579    0.2367 C   0  0  0  0  0  0  0  0  0  0  0  0
    0.9262   -1.5700    0.1603 N   0  0  0  0  0  0  0  0  0  0  0  0
    1.9295   -0.6343    0.3705 C   0  0  0  0  0  0  0  0  0  0  0  0
    1.7466    0.5636    0.5392 O   0  0  0  0  0  0  0  0  0  0  0  0
    3.1698   -1.2567    0.3566 N   0  0  0  0  0  0  0  0  0  0  0  0
    4.4373   -0.6411    0.4125 C   0  0  0  0  0  0  0  0  0  0  0  0
    5.5467   -1.4750    0.5980 C   0  0  0  0  0  0  0  0  0  0  0  0
    6.8364   -0.9438    0.6591 C   0  0  0  0  0  0  0  0  0  0  0  0
    7.0313    0.4291    0.5266 C   0  0  0  0  0  0  0  0  0  0  0  0
    5.9374    1.2814    0.3221 C   0  0  0  0  0  0  0  0  0  0  0  0
    6.1306    2.7718    0.1877 C   0  0  0  0  0  0  0  0  0  0  0  0
    5.3525    3.3251   -0.7835 F   0  0  0  0  0  0  0  0  0  0  0  0
    7.4115    3.1194   -0.1262 F   0  0  0  0  0  0  0  0  0  0  0  0
    5.8363    3.4413    1.3357 F   0  0  0  0  0  0  0  0  0  0  0  0
    4.6422    0.7334    0.2704 C   0  0  0  0  0  0  0  0  0  0  0  0
   -1.2984   -2.3754   -0.2426 C   0  0  0  0  0  0  0  0  0  0  0  0
   -2.6904   -2.2400   -0.1950 C   0  0  0  0  0  0  0  0  0  0  0  0
   -5.5372    0.1584   -0.0004 C   0  0  0  0  0  0  0  0  0  0  0  0
   -3.4714    1.3925   -1.2316 H   0  0  0  0  0  0  0  0  0  0  0  0
   -4.3559    2.8396   -1.4977 H   0  0  0  0  0  0  0  0  0  0  0  0
   -8.5688    2.3011   -0.5611 H   0  0  0  0  0  0  0  0  0  0  0  0
   -2.8587    0.8165    1.2964 H   0  0  0  0  0  0  0  0  0  0  0  0
   -0.4449    0.5868    1.2038 H   0  0  0  0  0  0  0  0  0  0  0  0
    1.2202   -2.4384   -0.2600 H   0  0  0  0  0  0  0  0  0  0  0  0
    3.1568   -2.2557    0.4949 H   0  0  0  0  0  0  0  0  0  0  0  0
    5.4246   -2.5498    0.7055 H   0  0  0  0  0  0  0  0  0  0  0  0
    7.6889   -1.6014    0.8121 H   0  0  0  0  0  0  0  0  0  0  0  0
    8.0412    0.8336    0.5797 H   0  0  0  0  0  0  0  0  0  0  0  0
    3.8071    1.4112    0.1075 H   0  0  0  0  0  0  0  0  0  0  0  0
   -0.8822   -3.2873   -0.6629 H   0  0  0  0  0  0  0  0  0  0  0  0
   -3.3154   -3.0465   -0.5750 H   0  0  0  0  0  0  0  0  0  0  0  0
  1  2  1  0
  2  3  1  0
  3  4  2  0
  4  5  1  0
  5  6  2  0
  6  7  1  0
  7  8  1  0
  8  9  2  0
  9 10  1  0
 10 11  1  0
 11 12  2  0
 12 13  1  0
 13 14  1  0
 14 15  1  0
 15 16  2  0
 15 17  1  0
 17 18  1  0
 18 19  1  0
 19 20  2  0
 20 21  1  0
 21 22  2  0
 22 23  1  0
 23 24  1  0
 23 25  1  0
 23 26  1  0
 22 27  1  0
 13 28  2  0
 28 29  1  0
  9 30  1  0
 30  2  2  0
 30  6  1  0
 29 10  2  0
 27 18  2  0
  1 31  1  0
  1 32  1  0
  4 33  1  0
 11 34  1  0
 12 35  1  0
 14 36  1  0
 17 37  1  0
 19 38  1  0
 20 39  1  0
 21 40  1  0
 27 41  1  0
 28 42  1  0
 29 43  1  0
M  END
$$$$
