
     RDKit          3D

 60 64  0  0  0  0  0  0  0  0999 V2000
    0.7226   -2.8563    0.1235 C   0  0  0  0  0  0  0  0  0  0  0  0
    1.5812   -1.6256    0.1056 C   0  0  0  0  0  0  0  0  0  0  0  0
    2.9265   -1.7184   -0.3318 C   0  0  0  0  0  0  0  0  0  0  0  0
    3.8006   -0.6165   -0.3898 C   0  0  0  0  0  0  0  0  0  0  0  0
    5.1417   -0.7183   -0.8070 N   0  0  0  0  0  0  0  0  0  0  0  0
    5.7281   -2.0698   -0.9477 C   0  0  0  0  0  0  0  0  0  0  0  0
    7.2410   -1.9607   -1.1954 C   0  0  0  0  0  0  0  0  0  0  0  0
    7.5228   -1.1720   -2.3628 O   0  0  0  0  0  0  0  0  0  0  0  0
    6.9983    0.1542   -2.1942 C   0  0  0  0  0  0  0  0  0  0  0  0
    5.4775    0.1451   -1.9679 C   0  0  0  0  0  0  0  0  0  0  0  0
    3.3112    0.6351    0.0304 C   0  0  0  0  0  0  0  0  0  0  0  0
    1.9822    0.7257    0.4536 C   0  0  0  0  0  0  0  0  0  0  0  0
    1.2321    1.7780    0.9073 N   0  0  0  0  0  0  0  0  0  0  0  0
   -0.0368    1.3261    1.2033 C   0  0  0  0  0  0  0  0  0  0  0  0
   -1.0233    2.2348    1.7007 C   0  0  0  0  0  0  0  0  0  0  0  0
   -2.2437    1.7795    2.0902 C   0  0  0  0  0  0  0  0  0  0  0  0
   -2.6176    0.4315    2.1361 N   0  0  0  0  0  0  0  0  0  0  0  0
   -3.7619   -0.1089    1.3781 C   0  0  0  0  0  0  0  0  0  0  0  0
   -3.4831   -0.1371   -0.1457 C   0  0  0  0  0  0  0  0  0  0  0  0
   -2.4023   -1.0290   -0.4399 O   0  0  0  0  0  0  0  0  0  0  0  0
   -4.7212   -0.5671   -0.9104 C   0  0  0  0  0  0  0  0  0  0  0  0
   -4.9527   -1.9117   -1.2434 C   0  0  0  0  0  0  0  0  0  0  0  0
   -6.1145   -2.2897   -1.9223 C   0  0  0  0  0  0  0  0  0  0  0  0
   -7.0651   -1.3292   -2.2694 C   0  0  0  0  0  0  0  0  0  0  0  0
   -6.8484    0.0067   -1.9393 C   0  0  0  0  0  0  0  0  0  0  0  0
   -8.0238    1.1946   -2.3606 Cl  0  0  0  0  0  0  0  0  0  0  0  0
   -5.6879    0.3908   -1.2656 C   0  0  0  0  0  0  0  0  0  0  0  0
   -3.2437    2.7323    2.5544 C   0  0  0  0  0  0  0  0  0  0  0  0
   -2.9937    4.0446    2.5877 C   0  0  0  0  0  0  0  0  0  0  0  0
   -1.7772    4.5196    2.1892 N   0  0  0  0  0  0  0  0  0  0  0  0
   -0.7500    3.7168    1.7589 C   0  0  0  0  0  0  0  0  0  0  0  0
    0.3376    4.1987    1.4412 O   0  0  0  0  0  0  0  0  0  0  0  0
   -0.1274    0.0292    0.9377 N   0  0  0  0  0  0  0  0  0  0  0  0
    1.1194   -0.3577    0.4940 C   0  0  0  0  0  0  0  0  0  0  0  0
   -0.2501   -2.6589    0.5857 H   0  0  0  0  0  0  0  0  0  0  0  0
    1.2100   -3.6490    0.7012 H   0  0  0  0  0  0  0  0  0  0  0  0
    0.5524   -3.2115   -0.8986 H   0  0  0  0  0  0  0  0  0  0  0  0
    3.2692   -2.7006   -0.6471 H   0  0  0  0  0  0  0  0  0  0  0  0
    5.2665   -2.5847   -1.7997 H   0  0  0  0  0  0  0  0  0  0  0  0
    5.5647   -2.6605   -0.0382 H   0  0  0  0  0  0  0  0  0  0  0  0
    7.6630   -2.9569   -1.3600 H   0  0  0  0  0  0  0  0  0  0  0  0
    7.7517   -1.5187   -0.3314 H   0  0  0  0  0  0  0  0  0  0  0  0
    7.5162    0.6356   -1.3564 H   0  0  0  0  0  0  0  0  0  0  0  0
    7.2348    0.7193   -3.1006 H   0  0  0  0  0  0  0  0  0  0  0  0
    5.1497    1.1796   -1.8240 H   0  0  0  0  0  0  0  0  0  0  0  0
    4.9776   -0.2518   -2.8591 H   0  0  0  0  0  0  0  0  0  0  0  0
    3.9560    1.5071    0.0541 H   0  0  0  0  0  0  0  0  0  0  0  0
    1.5406    2.7405    1.0023 H   0  0  0  0  0  0  0  0  0  0  0  0
   -1.7937   -0.1638    1.9682 H   0  0  0  0  0  0  0  0  0  0  0  0
   -3.9332   -1.1293    1.7388 H   0  0  0  0  0  0  0  0  0  0  0  0
   -4.6682    0.4653    1.5985 H   0  0  0  0  0  0  0  0  0  0  0  0
   -3.1774    0.8537   -0.5047 H   0  0  0  0  0  0  0  0  0  0  0  0
   -1.5939   -0.6293   -0.0502 H   0  0  0  0  0  0  0  0  0  0  0  0
   -4.2160   -2.6760   -0.9768 H   0  0  0  0  0  0  0  0  0  0  0  0
   -6.2728   -3.3345   -2.1787 H   0  0  0  0  0  0  0  0  0  0  0  0
   -7.9641   -1.6279   -2.7977 H   0  0  0  0  0  0  0  0  0  0  0  0
   -5.5339    1.4386   -1.0170 H   0  0  0  0  0  0  0  0  0  0  0  0
   -4.1983    2.3536    2.9046 H   0  0  0  0  0  0  0  0  0  0  0  0
   -3.7196    4.7715    2.9382 H   0  0  0  0  0  0  0  0  0  0  0  0
   -1.5799    5.5132    2.2295 H   0  0  0  0  0  0  0  0  0  0  0  0
  1  2  1  0
  2  3  1  0
  3  4  2  0
  4  5  1  0
  5  6  1  0
  6  7  1  0
  7  8  1  0
  8  9  1  0
  9 10  1  0
  4 11  1  0
 11 12  2  0
 12 13  1  0
 13 14  1  0
 14 15  1  0
 15 16  2  0
 16 17  1  0
 17 18  1  0
 18 19  1  0
 19 20  1  0
 19 21  1  0
 21 22  2  0
 22 23  1  0
 23 24  2  0
 24 25  1  0
 25 26  1  0
 25 27  2  0
 16 28  1  0
 28 29  2  0
 29 30  1  0
 30 31  1  0
 31 32  2  0
 14 33  2  0
 33 34  1  0
 34  2  2  0
 10  5  1  0
 34 12  1  0
 31 15  1  0
 27 21  1  0
  1 35  1  0
  1 36  1  0
  1 37  1  0
  3 38  1  0
  6 39  1  0
  6 40  1  0
  7 41  1  0
  7 42  1  0
  9 43  1  0
  9 44  1  0
 10 45  1  0
 10 46  1  0
 11 47  1  0
 13 48  1  0
 17 49  1  0
 18 50  1  0
 18 51  1  0
 19 52  1  0
 20 53  1  0
 22 54  1  0
 23 55  1  0
 24 56  1  0
 27 57  1  0
 28 58  1  0
 29 59  1  0
 30 60  1  0
M  END
$$$$
