
     RDKit          3D

 68 70  0  0  0  0  0  0  0  0999 V2000
    7.8861   -2.0207    0.6895 C   0  0  0  0  0  0  0  0  0  0  0  0
    6.6709   -1.2150    0.4020 N   0  0  0  0  0  0  0  0  0  0  0  0
    6.1416   -1.8118   -0.8491 C   0  0  0  0  0  0  0  0  0  0  0  0
    7.0973    0.0977    0.0600 C   0  0  0  0  0  0  0  0  0  0  0  0
    6.0062    1.0495   -0.0561 C   0  0  0  0  0  0  0  0  0  0  0  0
    6.3797    2.2389   -0.4268 O   0  0  0  0  0  0  0  0  0  0  0  0
    4.6332    0.8994    0.1652 N   0  0  0  0  0  0  0  0  0  0  0  0
    3.9244   -0.2566    0.6203 C   0  0  0  0  0  0  0  0  0  0  0  0
    2.6564    0.1008    1.4065 C   0  0  0  0  0  0  0  0  0  0  0  0
    1.7518    1.0249    0.6500 C   0  0  0  0  0  0  0  0  0  0  0  0
    0.4279    0.4346    0.3382 C   0  0  0  0  0  0  0  0  0  0  0  0
    0.3960   -0.7847   -0.2982 C   0  0  0  0  0  0  0  0  0  0  0  0
   -0.8528   -1.2918   -0.5795 C   0  0  0  0  0  0  0  0  0  0  0  0
   -2.0232   -0.6113   -0.2405 C   0  0  0  0  0  0  0  0  0  0  0  0
   -3.2151   -1.2905   -0.6178 N   0  0  0  0  0  0  0  0  0  0  0  0
   -3.6723   -1.0908   -1.9727 C   0  0  0  0  0  0  0  0  0  0  0  0
   -3.0585   -0.3552   -2.7856 O   0  0  0  0  0  0  0  0  0  0  0  0
   -4.8912   -1.7731   -2.3960 C   0  0  0  0  0  0  0  0  0  0  0  0
   -5.5154   -1.7393   -3.5788 N   0  0  0  0  0  0  0  0  0  0  0  0
   -6.6164   -2.5046   -3.5954 C   0  0  0  0  0  0  0  0  0  0  0  0
   -7.5502   -2.7300   -4.6718 C   0  0  0  0  0  0  0  0  0  0  0  0
   -8.3091   -2.9204   -5.5463 N   0  0  0  0  0  0  0  0  0  0  0  0
   -6.6947   -3.0647   -2.3284 C   0  0  0  0  0  0  0  0  0  0  0  0
   -5.6425   -2.6050   -1.6285 N   0  0  0  0  0  0  0  0  0  0  0  0
   -2.0103    0.6102    0.3981 C   0  0  0  0  0  0  0  0  0  0  0  0
   -3.1777    1.3523    0.8046 C   0  0  0  0  0  0  0  0  0  0  0  0
   -2.9967    2.5672    1.3725 C   0  0  0  0  0  0  0  0  0  0  0  0
   -4.2584    3.2699    1.7670 C   0  0  0  0  0  0  0  0  0  0  0  0
   -5.1524    2.3998    2.5911 C   0  0  0  0  0  0  0  0  0  0  0  0
   -5.1425    0.9580    2.1459 C   0  0  0  0  0  0  0  0  0  0  0  0
   -4.5942    0.9678    0.6976 C   0  0  0  0  0  0  0  0  0  0  0  0
   -0.7390    1.1201    0.6807 C   0  0  0  0  0  0  0  0  0  0  0  0
    2.4500    1.5329   -0.6049 C   0  0  0  0  0  0  0  0  0  0  0  0
    3.7786    2.0828   -0.1098 C   0  0  0  0  0  0  0  0  0  0  0  0
    0.6828    0.0000    0.0000 Cl  0  0  0  0  0  0  0  0  0  0  0  0
    8.3493   -1.5613    1.5706 H   0  0  0  0  0  0  0  0  0  0  0  0
    7.6453   -3.0912    0.8067 H   0  0  0  0  0  0  0  0  0  0  0  0
    8.5696   -1.8189   -0.1794 H   0  0  0  0  0  0  0  0  0  0  0  0
    5.3673   -2.5172   -0.4936 H   0  0  0  0  0  0  0  0  0  0  0  0
    5.7423   -0.9795   -1.4718 H   0  0  0  0  0  0  0  0  0  0  0  0
    6.9798   -2.3228   -1.3397 H   0  0  0  0  0  0  0  0  0  0  0  0
    7.8339    0.4561    0.8410 H   0  0  0  0  0  0  0  0  0  0  0  0
    7.7270    0.0356   -0.8674 H   0  0  0  0  0  0  0  0  0  0  0  0
    4.5600   -0.8254    1.3146 H   0  0  0  0  0  0  0  0  0  0  0  0
    3.5527   -0.8555   -0.2356 H   0  0  0  0  0  0  0  0  0  0  0  0
    2.1248   -0.8581    1.5780 H   0  0  0  0  0  0  0  0  0  0  0  0
    2.9456    0.4969    2.4066 H   0  0  0  0  0  0  0  0  0  0  0  0
    1.6080    1.9434    1.2741 H   0  0  0  0  0  0  0  0  0  0  0  0
    1.2481   -1.3485   -0.5800 H   0  0  0  0  0  0  0  0  0  0  0  0
   -0.8925   -2.2663   -1.0873 H   0  0  0  0  0  0  0  0  0  0  0  0
   -3.7430   -1.9288    0.0481 H   0  0  0  0  0  0  0  0  0  0  0  0
   -7.4443   -3.7486   -1.9350 H   0  0  0  0  0  0  0  0  0  0  0  0
   -5.4497   -2.8703   -0.6274 H   0  0  0  0  0  0  0  0  0  0  0  0
   -2.0877    3.0439    1.5499 H   0  0  0  0  0  0  0  0  0  0  0  0
   -4.7338    3.6504    0.8368 H   0  0  0  0  0  0  0  0  0  0  0  0
   -3.9819    4.1852    2.3469 H   0  0  0  0  0  0  0  0  0  0  0  0
   -6.2082    2.7738    2.4262 H   0  0  0  0  0  0  0  0  0  0  0  0
   -4.9821    2.5126    3.6852 H   0  0  0  0  0  0  0  0  0  0  0  0
   -6.1807    0.5517    2.1387 H   0  0  0  0  0  0  0  0  0  0  0  0
   -4.4590    0.3799    2.7935 H   0  0  0  0  0  0  0  0  0  0  0  0
   -4.8698    0.0741    0.1812 H   0  0  0  0  0  0  0  0  0  0  0  0
   -5.2037    1.8034    0.2228 H   0  0  0  0  0  0  0  0  0  0  0  0
   -0.5722    2.0572    1.1732 H   0  0  0  0  0  0  0  0  0  0  0  0
    2.6624    0.6838   -1.2595 H   0  0  0  0  0  0  0  0  0  0  0  0
    1.8477    2.3242   -1.0468 H   0  0  0  0  0  0  0  0  0  0  0  0
    4.2671    2.6888   -0.8921 H   0  0  0  0  0  0  0  0  0  0  0  0
    3.6905    2.6903    0.8033 H   0  0  0  0  0  0  0  0  0  0  0  0
   -0.6828    0.0000    0.0000 H   0  0  0  0  0  0  0  0  0  0  0  0
  1  2  1  0
  2  3  1  0
  2  4  1  0
  4  5  1  0
  5  6  2  0
  5  7  1  0
  7  8  1  0
  8  9  1  0
  9 10  1  0
 10 11  1  0
 11 12  1  0
 12 13  2  0
 13 14  1  0
 14 15  1  0
 15 16  1  0
 16 17  2  0
 16 18  1  0
 18 19  2  0
 19 20  1  0
 20 21  1  0
 21 22  3  0
 20 23  2  0
 23 24  1  0
 14 25  2  0
 25 26  1  0
 26 27  2  0
 27 28  1  0
 28 29  1  0
 29 30  1  0
 30 31  1  0
 25 32  1  0
 10 33  1  0
 33 34  1  0
 34  7  1  0
 32 11  2  0
 24 18  1  0
 31 26  1  0
  1 36  1  0
  1 37  1  0
  1 38  1  0
  3 39  1  0
  3 40  1  0
  3 41  1  0
  4 42  1  0
  4 43  1  0
  8 44  1  0
  8 45  1  0
  9 46  1  0
  9 47  1  0
 10 48  1  0
 12 49  1  0
 13 50  1  0
 15 51  1  0
 23 52  1  0
 24 53  1  0
 27 54  1  0
 28 55  1  0
 28 56  1  0
 29 57  1  0
 29 58  1  0
 30 59  1  0
 30 60  1  0
 31 61  1  0
 31 62  1  0
 32 63  1  0
 33 64  1  0
 33 65  1  0
 34 66  1  0
 34 67  1  0
 35 68  1  0
M  END
$$$$
