
     RDKit          3D

 61 65  0  0  0  0  0  0  0  0999 V2000
   -2.1908    6.3757    0.7813 C   0  0  0  0  0  0  0  0  0  0  0  0
   -2.1447    4.8999    0.7604 C   0  0  0  0  0  0  0  0  0  0  0  0
   -1.2695    4.0029    1.3319 C   0  0  0  0  0  0  0  0  0  0  0  0
   -1.7188    2.7171    0.9342 C   0  0  0  0  0  0  0  0  0  0  0  0
   -1.0490    1.6055    1.2994 N   0  0  0  0  0  0  0  0  0  0  0  0
   -1.2601    0.2515    1.0281 C   0  0  0  0  0  0  0  0  0  0  0  0
   -2.4448   -0.2671    0.5463 C   0  0  0  0  0  0  0  0  0  0  0  0
   -2.5152   -1.6273    0.2965 C   0  0  0  0  0  0  0  0  0  0  0  0
   -3.7051   -2.2146   -0.1832 N   0  0  0  0  0  0  0  0  0  0  0  0
   -4.2676   -1.5614   -1.3867 C   0  0  0  0  0  0  0  0  0  0  0  0
   -5.5955   -2.2365   -1.8151 C   0  0  0  0  0  0  0  0  0  0  0  0
   -5.4555   -3.6929   -2.0200 N   0  0  0  0  0  0  0  0  0  0  0  0
   -6.7301   -4.2935   -2.3993 C   0  0  0  0  0  0  0  0  0  0  0  0
   -4.9462   -4.2993   -0.7725 C   0  0  0  0  0  0  0  0  0  0  0  0
   -3.6014   -3.6852   -0.3240 C   0  0  0  0  0  0  0  0  0  0  0  0
   -1.4581   -2.4155    0.5511 N   0  0  0  0  0  0  0  0  0  0  0  0
   -0.3435   -1.8396    1.0194 C   0  0  0  0  0  0  0  0  0  0  0  0
    1.0466   -2.9220    1.3026 S   0  0  0  0  0  0  0  0  0  0  0  0
    2.4114   -1.8390    0.9375 C   0  0  0  0  0  0  0  0  0  0  0  0
    3.1541   -1.2721    1.9771 C   0  0  0  0  0  0  0  0  0  0  0  0
    4.2291   -0.4189    1.7001 C   0  0  0  0  0  0  0  0  0  0  0  0
    4.5817   -0.1312    0.3794 C   0  0  0  0  0  0  0  0  0  0  0  0
    5.6497    0.7122    0.0167 N   0  0  0  0  0  0  0  0  0  0  0  0
    6.4850    1.4133    0.8578 C   0  0  0  0  0  0  0  0  0  0  0  0
    6.4480    1.4791    2.0779 O   0  0  0  0  0  0  0  0  0  0  0  0
    7.5333    2.1648    0.1092 C   0  0  0  0  0  0  0  0  0  0  0  0
    8.9129    2.3457    0.7005 C   0  0  0  0  0  0  0  0  0  0  0  0
    8.7188    1.4161   -0.4626 C   0  0  0  0  0  0  0  0  0  0  0  0
    3.8466   -0.7151   -0.6610 C   0  0  0  0  0  0  0  0  0  0  0  0
    2.7691   -1.5635   -0.3848 C   0  0  0  0  0  0  0  0  0  0  0  0
   -0.2033   -0.5339    1.2783 N   0  0  0  0  0  0  0  0  0  0  0  0
   -2.8169    2.8117    0.1775 N   0  0  0  0  0  0  0  0  0  0  0  0
   -3.0477    4.1304    0.0800 N   0  0  0  0  0  0  0  0  0  0  0  0
   -1.7287    6.7595    1.6963 H   0  0  0  0  0  0  0  0  0  0  0  0
   -3.2148    6.7541    0.7450 H   0  0  0  0  0  0  0  0  0  0  0  0
   -1.6428    6.7861   -0.0733 H   0  0  0  0  0  0  0  0  0  0  0  0
   -0.4136    4.2437    1.9500 H   0  0  0  0  0  0  0  0  0  0  0  0
   -0.1045    1.6949    1.6555 H   0  0  0  0  0  0  0  0  0  0  0  0
   -3.3069    0.3715    0.4053 H   0  0  0  0  0  0  0  0  0  0  0  0
   -4.4941   -0.5069   -1.1956 H   0  0  0  0  0  0  0  0  0  0  0  0
   -3.5491   -1.6055   -2.2194 H   0  0  0  0  0  0  0  0  0  0  0  0
   -6.3607   -2.0334   -1.0528 H   0  0  0  0  0  0  0  0  0  0  0  0
   -5.9329   -1.7652   -2.7468 H   0  0  0  0  0  0  0  0  0  0  0  0
   -6.6064   -5.3677   -2.5744 H   0  0  0  0  0  0  0  0  0  0  0  0
   -7.0946   -3.8582   -3.3355 H   0  0  0  0  0  0  0  0  0  0  0  0
   -7.5017   -4.1610   -1.6327 H   0  0  0  0  0  0  0  0  0  0  0  0
   -4.7967   -5.3753   -0.9212 H   0  0  0  0  0  0  0  0  0  0  0  0
   -5.6809   -4.1796    0.0349 H   0  0  0  0  0  0  0  0  0  0  0  0
   -2.8261   -3.9481   -1.0572 H   0  0  0  0  0  0  0  0  0  0  0  0
   -3.3378   -4.1388    0.6390 H   0  0  0  0  0  0  0  0  0  0  0  0
    2.8988   -1.4784    3.0150 H   0  0  0  0  0  0  0  0  0  0  0  0
    4.7687    0.0027    2.5435 H   0  0  0  0  0  0  0  0  0  0  0  0
    5.8357    0.8043   -0.9736 H   0  0  0  0  0  0  0  0  0  0  0  0
    7.1498    3.0125   -0.4516 H   0  0  0  0  0  0  0  0  0  0  0  0
    9.4224    3.2859    0.5240 H   0  0  0  0  0  0  0  0  0  0  0  0
    9.1087    1.9150    1.6779 H   0  0  0  0  0  0  0  0  0  0  0  0
    8.8094    0.3492   -0.2659 H   0  0  0  0  0  0  0  0  0  0  0  0
    9.1024    1.7265   -1.4274 H   0  0  0  0  0  0  0  0  0  0  0  0
    4.0955   -0.5185   -1.7010 H   0  0  0  0  0  0  0  0  0  0  0  0
    2.2130   -2.0038   -1.2100 H   0  0  0  0  0  0  0  0  0  0  0  0
   -3.8344    4.4372   -0.4850 H   0  0  0  0  0  0  0  0  0  0  0  0
  1  2  1  0
  2  3  2  0
  3  4  1  0
  4  5  1  0
  5  6  1  0
  6  7  2  0
  7  8  1  0
  8  9  1  0
  9 10  1  0
 10 11  1  0
 11 12  1  0
 12 13  1  0
 12 14  1  0
 14 15  1  0
  8 16  2  0
 16 17  1  0
 17 18  1  0
 18 19  1  0
 19 20  1  0
 20 21  2  0
 21 22  1  0
 22 23  1  0
 23 24  1  0
 24 25  2  0
 24 26  1  0
 26 27  1  0
 27 28  1  0
 22 29  2  0
 29 30  1  0
 17 31  2  0
  4 32  2  0
 32 33  1  0
 33  2  1  0
 31  6  1  0
 15  9  1  0
 30 19  2  0
 28 26  1  0
  1 34  1  0
  1 35  1  0
  1 36  1  0
  3 37  1  0
  5 38  1  0
  7 39  1  0
 10 40  1  0
 10 41  1  0
 11 42  1  0
 11 43  1  0
 13 44  1  0
 13 45  1  0
 13 46  1  0
 14 47  1  0
 14 48  1  0
 15 49  1  0
 15 50  1  0
 20 51  1  0
 21 52  1  0
 23 53  1  0
 26 54  1  0
 27 55  1  0
 27 56  1  0
 28 57  1  0
 28 58  1  0
 29 59  1  0
 30 60  1  0
 33 61  1  0
M  END
$$$$
