
     RDKit          3D

 76 80  0  0  0  0  0  0  0  0999 V2000
   -6.5635   -5.6269    0.2685 C   0  0  0  0  0  0  0  0  0  0  0  0
   -6.1987   -4.1762    0.1556 C   0  0  0  0  0  0  0  0  0  0  0  0
   -6.8888   -3.3408   -0.7291 C   0  0  0  0  0  0  0  0  0  0  0  0
   -6.5347   -1.9951   -0.8565 C   0  0  0  0  0  0  0  0  0  0  0  0
   -5.4598   -1.4727   -0.1232 C   0  0  0  0  0  0  0  0  0  0  0  0
   -5.1164   -0.0973   -0.2797 N   0  0  0  0  0  0  0  0  0  0  0  0
   -6.0479    0.7737   -0.7483 N   0  0  0  0  0  0  0  0  0  0  0  0
   -5.5330    1.9888   -0.5329 C   0  0  0  0  0  0  0  0  0  0  0  0
   -6.3197    3.2511   -0.8499 C   0  0  0  0  0  0  0  0  0  0  0  0
   -7.8153    2.9555   -1.0973 C   0  0  0  0  0  0  0  0  0  0  0  0
   -5.7438    3.9166   -2.1153 C   0  0  0  0  0  0  0  0  0  0  0  0
   -6.2293    4.2482    0.3241 C   0  0  0  0  0  0  0  0  0  0  0  0
   -4.2029    1.8963   -0.0604 C   0  0  0  0  0  0  0  0  0  0  0  0
   -3.9080    0.5509   -0.0105 C   0  0  0  0  0  0  0  0  0  0  0  0
   -2.6986   -0.1055    0.2014 N   0  0  0  0  0  0  0  0  0  0  0  0
   -1.4872    0.5525    0.3911 C   0  0  0  0  0  0  0  0  0  0  0  0
   -1.3478    1.7681    0.4084 O   0  0  0  0  0  0  0  0  0  0  0  0
   -0.4719   -0.3770    0.5819 N   0  0  0  0  0  0  0  0  0  0  0  0
    0.9238   -0.1395    0.7071 C   0  0  0  0  0  0  0  0  0  0  0  0
    1.4661    1.1116    0.3979 C   0  0  0  0  0  0  0  0  0  0  0  0
    2.8337    1.3554    0.5094 C   0  0  0  0  0  0  0  0  0  0  0  0
    3.6967    0.3466    0.9263 C   0  0  0  0  0  0  0  0  0  0  0  0
    5.0536    0.5139    1.0678 O   0  0  0  0  0  0  0  0  0  0  0  0
    5.6198    1.7811    0.7266 C   0  0  0  0  0  0  0  0  0  0  0  0
    7.1434    1.7321    0.9526 C   0  0  0  0  0  0  0  0  0  0  0  0
    7.9237    1.1768   -0.1756 N   0  0  0  0  0  0  0  0  0  0  0  0
    9.3714    1.2675    0.1232 C   0  0  0  0  0  0  0  0  0  0  0  0
   10.2223    0.6390   -0.9905 C   0  0  0  0  0  0  0  0  0  0  0  0
    9.8741   -0.7368   -1.1889 O   0  0  0  0  0  0  0  0  0  0  0  0
    8.4882   -0.8402   -1.5388 C   0  0  0  0  0  0  0  0  0  0  0  0
    7.5847   -0.2377   -0.4484 C   0  0  0  0  0  0  0  0  0  0  0  0
    3.1879   -0.9393    1.2336 C   0  0  0  0  0  0  0  0  0  0  0  0
    4.0515   -1.9797    1.6495 C   0  0  0  0  0  0  0  0  0  0  0  0
    3.5825   -3.2540    1.9560 C   0  0  0  0  0  0  0  0  0  0  0  0
    2.2294   -3.5211    1.8561 C   0  0  0  0  0  0  0  0  0  0  0  0
    1.3509   -2.5133    1.4495 C   0  0  0  0  0  0  0  0  0  0  0  0
    1.7911   -1.1997    1.1249 C   0  0  0  0  0  0  0  0  0  0  0  0
   -4.7801   -2.3024    0.7776 C   0  0  0  0  0  0  0  0  0  0  0  0
   -5.1416   -3.6478    0.9051 C   0  0  0  0  0  0  0  0  0  0  0  0
   -6.0119   -6.2098   -0.4756 H   0  0  0  0  0  0  0  0  0  0  0  0
   -6.3279   -6.0139    1.2655 H   0  0  0  0  0  0  0  0  0  0  0  0
   -7.6370   -5.7729    0.1089 H   0  0  0  0  0  0  0  0  0  0  0  0
   -7.7133   -3.7293   -1.3237 H   0  0  0  0  0  0  0  0  0  0  0  0
   -7.0954   -1.3679   -1.5482 H   0  0  0  0  0  0  0  0  0  0  0  0
   -7.9580    2.2882   -1.9555 H   0  0  0  0  0  0  0  0  0  0  0  0
   -8.2767    2.4784   -0.2245 H   0  0  0  0  0  0  0  0  0  0  0  0
   -8.3725    3.8763   -1.3048 H   0  0  0  0  0  0  0  0  0  0  0  0
   -6.2958    4.8281   -2.3719 H   0  0  0  0  0  0  0  0  0  0  0  0
   -5.7951    3.2400   -2.9767 H   0  0  0  0  0  0  0  0  0  0  0  0
   -4.6918    4.1940   -1.9799 H   0  0  0  0  0  0  0  0  0  0  0  0
   -6.8189    5.1506    0.1254 H   0  0  0  0  0  0  0  0  0  0  0  0
   -5.1970    4.5680    0.5064 H   0  0  0  0  0  0  0  0  0  0  0  0
   -6.6038    3.8009    1.2523 H   0  0  0  0  0  0  0  0  0  0  0  0
   -3.5273    2.7186    0.1315 H   0  0  0  0  0  0  0  0  0  0  0  0
   -2.6612   -1.0874   -0.0311 H   0  0  0  0  0  0  0  0  0  0  0  0
   -0.7893   -1.3029    0.8034 H   0  0  0  0  0  0  0  0  0  0  0  0
    0.8470    1.9331    0.0501 H   0  0  0  0  0  0  0  0  0  0  0  0
    3.1851    2.3506    0.2586 H   0  0  0  0  0  0  0  0  0  0  0  0
    5.4020    2.0424   -0.3158 H   0  0  0  0  0  0  0  0  0  0  0  0
    5.2034    2.5478    1.3914 H   0  0  0  0  0  0  0  0  0  0  0  0
    7.3605    1.1800    1.8761 H   0  0  0  0  0  0  0  0  0  0  0  0
    7.4738    2.7683    1.0987 H   0  0  0  0  0  0  0  0  0  0  0  0
    9.5898    0.7511    1.0675 H   0  0  0  0  0  0  0  0  0  0  0  0
    9.6628    2.3181    0.2363 H   0  0  0  0  0  0  0  0  0  0  0  0
   10.1081    1.1834   -1.9359 H   0  0  0  0  0  0  0  0  0  0  0  0
   11.2804    0.6745   -0.7121 H   0  0  0  0  0  0  0  0  0  0  0  0
    8.2574   -1.9031   -1.6632 H   0  0  0  0  0  0  0  0  0  0  0  0
    8.3223   -0.3496   -2.5058 H   0  0  0  0  0  0  0  0  0  0  0  0
    6.5503   -0.3231   -0.7955 H   0  0  0  0  0  0  0  0  0  0  0  0
    7.6927   -0.8310    0.4688 H   0  0  0  0  0  0  0  0  0  0  0  0
    5.1214   -1.7964    1.7391 H   0  0  0  0  0  0  0  0  0  0  0  0
    4.2760   -4.0283    2.2725 H   0  0  0  0  0  0  0  0  0  0  0  0
    1.8510   -4.5115    2.0956 H   0  0  0  0  0  0  0  0  0  0  0  0
    0.3038   -2.7906    1.3971 H   0  0  0  0  0  0  0  0  0  0  0  0
   -4.0128   -1.9195    1.4438 H   0  0  0  0  0  0  0  0  0  0  0  0
   -4.6077   -4.2784    1.6135 H   0  0  0  0  0  0  0  0  0  0  0  0
  1  2  1  0
  2  3  1  0
  3  4  2  0
  4  5  1  0
  5  6  1  0
  6  7  1  0
  7  8  2  0
  8  9  1  0
  9 10  1  0
  9 11  1  0
  9 12  1  0
  8 13  1  0
 13 14  2  0
 14 15  1  0
 15 16  1  0
 16 17  2  0
 16 18  1  0
 18 19  1  0
 19 20  2  0
 20 21  1  0
 21 22  2  0
 22 23  1  0
 23 24  1  0
 24 25  1  0
 25 26  1  0
 26 27  1  0
 27 28  1  0
 28 29  1  0
 29 30  1  0
 30 31  1  0
 22 32  1  0
 32 33  2  0
 33 34  1  0
 34 35  2  0
 35 36  1  0
 36 37  2  0
  5 38  2  0
 38 39  1  0
 39  2  2  0
 14  6  1  0
 37 19  1  0
 31 26  1  0
 37 32  1  0
  1 40  1  0
  1 41  1  0
  1 42  1  0
  3 43  1  0
  4 44  1  0
 10 45  1  0
 10 46  1  0
 10 47  1  0
 11 48  1  0
 11 49  1  0
 11 50  1  0
 12 51  1  0
 12 52  1  0
 12 53  1  0
 13 54  1  0
 15 55  1  0
 18 56  1  0
 20 57  1  0
 21 58  1  0
 24 59  1  0
 24 60  1  0
 25 61  1  0
 25 62  1  0
 27 63  1  0
 27 64  1  0
 28 65  1  0
 28 66  1  0
 30 67  1  0
 30 68  1  0
 31 69  1  0
 31 70  1  0
 33 71  1  0
 34 72  1  0
 35 73  1  0
 36 74  1  0
 38 75  1  0
 39 76  1  0
M  END
$$$$
