
     RDKit          3D

 73 81  0  0  0  0  0  0  0  0999 V2000
    0.6410    1.6295   -1.4449 C   0  0  0  0  0  0  0  0  0  0  0  0
    0.4734    0.4779   -0.6275 O   0  0  0  0  0  0  0  0  0  0  0  0
    0.9693    0.6625    0.7176 C   0  0  2  0  0  0  0  0  0  0  0  0
    1.8764   -0.5497    1.0196 C   0  0  2  0  0  0  0  0  0  0  0  0
    3.1764   -0.4934    0.3091 N   0  0  0  0  0  0  0  0  0  0  0  0
    3.2916   -1.1070   -1.0136 C   0  0  0  0  0  0  0  0  0  0  0  0
    4.1280    0.3959    0.8234 C   0  0  0  0  0  0  0  0  0  0  0  0
    3.8713    1.1860    1.7314 O   0  0  0  0  0  0  0  0  0  0  0  0
    5.5069    0.3845    0.2848 C   0  0  0  0  0  0  0  0  0  0  0  0
    6.0997    1.5975   -0.0791 C   0  0  0  0  0  0  0  0  0  0  0  0
    7.4081    1.6105   -0.5634 C   0  0  0  0  0  0  0  0  0  0  0  0
    8.1256    0.4175   -0.6676 C   0  0  0  0  0  0  0  0  0  0  0  0
    7.5426   -0.7902   -0.2795 C   0  0  0  0  0  0  0  0  0  0  0  0
    6.2343   -0.8090    0.2054 C   0  0  0  0  0  0  0  0  0  0  0  0
    1.0786   -1.8360    0.7913 C   0  0  0  0  0  0  0  0  0  0  0  0
   -0.2870   -1.7790    1.4871 C   0  0  1  0  0  0  0  0  0  0  0  0
   -0.4806   -0.6434    2.3259 O   0  0  0  0  0  0  0  0  0  0  0  0
   -0.1818    0.6687    1.7804 C   0  0  1  0  0  0  0  0  0  0  0  0
    0.3015    1.3861    3.0627 C   0  0  0  0  0  0  0  0  0  0  0  0
   -1.4313    1.2368    1.2419 N   0  0  0  0  0  0  0  0  0  0  0  0
   -1.8233    2.5739    1.1719 C   0  0  0  0  0  0  0  0  0  0  0  0
   -1.1974    3.7732    1.5634 C   0  0  0  0  0  0  0  0  0  0  0  0
   -1.8697    4.9867    1.3819 C   0  0  0  0  0  0  0  0  0  0  0  0
   -3.1329    5.0251    0.8118 C   0  0  0  0  0  0  0  0  0  0  0  0
   -3.7470    3.8452    0.3911 C   0  0  0  0  0  0  0  0  0  0  0  0
   -3.0912    2.6051    0.5588 C   0  0  0  0  0  0  0  0  0  0  0  0
   -3.4210    1.2766    0.1753 C   0  0  0  0  0  0  0  0  0  0  0  0
   -4.4638    0.6364   -0.5145 C   0  0  0  0  0  0  0  0  0  0  0  0
   -4.4340   -0.7639   -0.8001 C   0  0  0  0  0  0  0  0  0  0  0  0
   -3.4013   -1.6384   -0.4281 C   0  0  0  0  0  0  0  0  0  0  0  0
   -3.0539   -3.0184   -0.5590 C   0  0  0  0  0  0  0  0  0  0  0  0
   -3.6609   -4.1361   -1.1719 C   0  0  0  0  0  0  0  0  0  0  0  0
   -3.0467   -5.3915   -1.1152 C   0  0  0  0  0  0  0  0  0  0  0  0
   -1.8361   -5.5552   -0.4550 C   0  0  0  0  0  0  0  0  0  0  0  0
   -1.2074   -4.4726    0.1639 C   0  0  0  0  0  0  0  0  0  0  0  0
   -1.8281   -3.2114    0.0998 C   0  0  0  0  0  0  0  0  0  0  0  0
   -1.4431   -1.9846    0.6207 N   0  0  0  0  0  0  0  0  0  0  0  0
   -2.3698   -1.0476    0.2830 C   0  0  0  0  0  0  0  0  0  0  0  0
   -2.3776    0.4802    0.5958 C   0  0  0  0  0  0  0  0  0  0  0  0
   -5.6615   -1.0767   -1.5475 C   0  0  0  0  0  0  0  0  0  0  0  0
   -6.0230   -2.1531   -1.9778 O   0  0  0  0  0  0  0  0  0  0  0  0
   -6.3663    0.0987   -1.6876 N   0  0  0  0  0  0  0  0  0  0  0  0
   -5.7165    1.2297   -1.0879 C   0  0  0  0  0  0  0  0  0  0  0  0
    1.7055    1.8445   -1.5791 H   0  0  0  0  0  0  0  0  0  0  0  0
    0.1360    2.4968   -1.0135 H   0  0  0  0  0  0  0  0  0  0  0  0
    0.2022    1.4207   -2.4240 H   0  0  0  0  0  0  0  0  0  0  0  0
    1.5273    1.6052    0.7668 H   0  0  0  0  0  0  0  0  0  0  0  0
    2.1433   -0.5198    2.0849 H   0  0  0  0  0  0  0  0  0  0  0  0
    3.3314   -2.1929   -0.8925 H   0  0  0  0  0  0  0  0  0  0  0  0
    2.4263   -0.8365   -1.6228 H   0  0  0  0  0  0  0  0  0  0  0  0
    4.1792   -0.7733   -1.5534 H   0  0  0  0  0  0  0  0  0  0  0  0
    5.5459    2.5281    0.0184 H   0  0  0  0  0  0  0  0  0  0  0  0
    7.8717    2.5509   -0.8511 H   0  0  0  0  0  0  0  0  0  0  0  0
    9.1472    0.4311   -1.0405 H   0  0  0  0  0  0  0  0  0  0  0  0
    8.1123   -1.7138   -0.3461 H   0  0  0  0  0  0  0  0  0  0  0  0
    5.7917   -1.7472    0.5290 H   0  0  0  0  0  0  0  0  0  0  0  0
    0.9490   -2.0586   -0.2742 H   0  0  0  0  0  0  0  0  0  0  0  0
    1.6543   -2.6817    1.1905 H   0  0  0  0  0  0  0  0  0  0  0  0
   -0.3277   -2.6274    2.1828 H   0  0  0  0  0  0  0  0  0  0  0  0
    0.8559    2.3034    2.8563 H   0  0  0  0  0  0  0  0  0  0  0  0
    0.9750    0.7443    3.6445 H   0  0  0  0  0  0  0  0  0  0  0  0
   -0.5384    1.6222    3.7269 H   0  0  0  0  0  0  0  0  0  0  0  0
   -0.2056    3.8003    1.9949 H   0  0  0  0  0  0  0  0  0  0  0  0
   -1.3916    5.9135    1.6921 H   0  0  0  0  0  0  0  0  0  0  0  0
   -3.6412    5.9765    0.6788 H   0  0  0  0  0  0  0  0  0  0  0  0
   -4.7257    3.8904   -0.0767 H   0  0  0  0  0  0  0  0  0  0  0  0
   -4.6090   -4.0338   -1.6919 H   0  0  0  0  0  0  0  0  0  0  0  0
   -3.5277   -6.2421   -1.5917 H   0  0  0  0  0  0  0  0  0  0  0  0
   -1.3740   -6.5387   -0.4176 H   0  0  0  0  0  0  0  0  0  0  0  0
   -0.2636   -4.6191    0.6785 H   0  0  0  0  0  0  0  0  0  0  0  0
   -7.2527    0.1158   -2.1728 H   0  0  0  0  0  0  0  0  0  0  0  0
   -6.3657    1.6450   -0.3130 H   0  0  0  0  0  0  0  0  0  0  0  0
   -5.5029    1.9694   -1.8637 H   0  0  0  0  0  0  0  0  0  0  0  0
  1  2  1  0
  2  3  1  0
  3  4  1  0
  4  5  1  0
  5  6  1  0
  5  7  1  0
  7  8  2  0
  7  9  1  0
  9 10  2  0
 10 11  1  0
 11 12  2  0
 12 13  1  0
 13 14  2  0
  4 15  1  0
 15 16  1  0
 16 17  1  0
 17 18  1  0
 18 19  1  1
 18 20  1  0
 20 21  1  0
 21 22  2  0
 22 23  1  0
 23 24  2  0
 24 25  1  0
 25 26  2  0
 26 27  1  0
 27 28  2  0
 28 29  1  0
 29 30  2  0
 30 31  1  0
 31 32  2  0
 32 33  1  0
 33 34  2  0
 34 35  1  0
 35 36  2  0
 36 37  1  0
 37 38  1  0
 38 39  2  0
 29 40  1  0
 40 41  2  0
 40 42  1  0
 42 43  1  0
 18  3  1  0
 39 20  1  0
 14  9  1  0
 37 16  1  0
 26 21  1  0
 39 27  1  0
 43 28  1  0
 38 30  1  0
 36 31  1  0
  1 44  1  0
  1 45  1  0
  1 46  1  0
  3 47  1  6
  4 48  1  1
  6 49  1  0
  6 50  1  0
  6 51  1  0
 10 52  1  0
 11 53  1  0
 12 54  1  0
 13 55  1  0
 14 56  1  0
 15 57  1  0
 15 58  1  0
 16 59  1  1
 19 60  1  0
 19 61  1  0
 19 62  1  0
 22 63  1  0
 23 64  1  0
 24 65  1  0
 25 66  1  0
 32 67  1  0
 33 68  1  0
 34 69  1  0
 35 70  1  0
 42 71  1  0
 43 72  1  0
 43 73  1  0
M  END
$$$$
