
     RDKit          3D

 44 46  0  0  0  0  0  0  0  0999 V2000
    9.4282   -1.5893    2.4789 N   0  0  0  0  0  0  0  0  0  0  0  0
    8.5314   -0.9400    2.1273 C   0  0  0  0  0  0  0  0  0  0  0  0
    7.4139   -0.0860    1.6918 C   0  0  0  0  0  0  0  0  0  0  0  0
    6.3410   -0.8974    1.2085 O   0  0  0  0  0  0  0  0  0  0  0  0
    5.2383   -0.2513    0.7244 C   0  0  0  0  0  0  0  0  0  0  0  0
    4.2551   -1.0932    0.2011 C   0  0  0  0  0  0  0  0  0  0  0  0
    3.0736   -0.5691   -0.3319 C   0  0  0  0  0  0  0  0  0  0  0  0
    2.8664    0.8126   -0.3699 C   0  0  0  0  0  0  0  0  0  0  0  0
    1.6603    1.3972   -0.8313 N   0  0  0  0  0  0  0  0  0  0  0  0
    0.7731    0.8130   -1.7605 C   0  0  0  0  0  0  0  0  0  0  0  0
   -0.4823    0.6290   -1.2986 N   0  0  0  0  0  0  0  0  0  0  0  0
   -1.3908    0.0734   -2.1135 C   0  0  0  0  0  0  0  0  0  0  0  0
   -2.6996   -0.1686   -1.7090 N   0  0  0  0  0  0  0  0  0  0  0  0
   -3.4212    0.0769   -0.5364 C   0  0  0  0  0  0  0  0  0  0  0  0
   -2.8841    0.7007    0.5963 C   0  0  0  0  0  0  0  0  0  0  0  0
   -3.6524    0.9173    1.7475 C   0  0  0  0  0  0  0  0  0  0  0  0
   -4.9795    0.5036    1.7910 C   0  0  0  0  0  0  0  0  0  0  0  0
   -5.5242   -0.1359    0.6791 C   0  0  0  0  0  0  0  0  0  0  0  0
   -7.2155   -0.6445    0.7038 S   0  0  0  0  0  0  0  0  0  0  0  0
   -7.0991   -2.2065    1.3069 N   0  0  0  0  0  0  0  0  0  0  0  0
   -7.6920   -0.7782   -0.6532 O   0  0  0  0  0  0  0  0  0  0  0  0
   -7.9282    0.1156    1.7038 O   0  0  0  0  0  0  0  0  0  0  0  0
   -4.7596   -0.3407   -0.4764 C   0  0  0  0  0  0  0  0  0  0  0  0
   -1.1146   -0.2998   -3.3718 N   0  0  0  0  0  0  0  0  0  0  0  0
    0.1392   -0.0809   -3.8175 C   0  0  0  0  0  0  0  0  0  0  0  0
    1.1351    0.4794   -3.0548 C   0  0  0  0  0  0  0  0  0  0  0  0
    2.8276    0.7959   -3.8266 Br  0  0  0  0  0  0  0  0  0  0  0  0
    3.8377    1.6488    0.1923 C   0  0  0  0  0  0  0  0  0  0  0  0
    5.0225    1.1256    0.7247 C   0  0  0  0  0  0  0  0  0  0  0  0
    7.7668    0.5801    0.8955 H   0  0  0  0  0  0  0  0  0  0  0  0
    7.0722    0.5112    2.5453 H   0  0  0  0  0  0  0  0  0  0  0  0
    4.4046   -2.1707    0.2120 H   0  0  0  0  0  0  0  0  0  0  0  0
    2.3218   -1.2582   -0.7072 H   0  0  0  0  0  0  0  0  0  0  0  0
    1.0727    1.5662   -0.0124 H   0  0  0  0  0  0  0  0  0  0  0  0
   -3.2065   -0.5747   -2.4833 H   0  0  0  0  0  0  0  0  0  0  0  0
   -1.8536    1.0415    0.6079 H   0  0  0  0  0  0  0  0  0  0  0  0
   -3.2078    1.4137    2.6068 H   0  0  0  0  0  0  0  0  0  0  0  0
   -5.5747    0.6805    2.6836 H   0  0  0  0  0  0  0  0  0  0  0  0
   -7.4328   -2.8733    0.6105 H   0  0  0  0  0  0  0  0  0  0  0  0
   -7.5844   -2.2688    2.2023 H   0  0  0  0  0  0  0  0  0  0  0  0
   -5.2135   -0.8304   -1.3356 H   0  0  0  0  0  0  0  0  0  0  0  0
    0.3116   -0.3772   -4.8485 H   0  0  0  0  0  0  0  0  0  0  0  0
    3.6804    2.7255    0.2006 H   0  0  0  0  0  0  0  0  0  0  0  0
    5.7431    1.8272    1.1307 H   0  0  0  0  0  0  0  0  0  0  0  0
  1  2  3  0
  2  3  1  0
  3  4  1  0
  4  5  1  0
  5  6  1  0
  6  7  2  0
  7  8  1  0
  8  9  1  0
  9 10  1  0
 10 11  2  0
 11 12  1  0
 12 13  1  0
 13 14  1  0
 14 15  1  0
 15 16  2  0
 16 17  1  0
 17 18  2  0
 18 19  1  0
 19 20  1  0
 19 21  2  0
 19 22  2  0
 18 23  1  0
 12 24  2  0
 24 25  1  0
 25 26  2  0
 26 27  1  0
  8 28  2  0
 28 29  1  0
 29  5  2  0
 26 10  1  0
 23 14  2  0
  3 30  1  0
  3 31  1  0
  6 32  1  0
  7 33  1  0
  9 34  1  0
 13 35  1  0
 15 36  1  0
 16 37  1  0
 17 38  1  0
 20 39  1  0
 20 40  1  0
 23 41  1  0
 25 42  1  0
 28 43  1  0
 29 44  1  0
M  END
$$$$
