
     RDKit          3D

 77 82  0  0  0  0  0  0  0  0999 V2000
   -3.0072   -3.0321   -0.2857 C   0  0  0  0  0  0  0  0  0  0  0  0
   -1.9678   -1.9754   -0.3936 C   0  0  0  0  0  0  0  0  0  0  0  0
   -0.6410   -2.3117   -0.5008 N   0  0  0  0  0  0  0  0  0  0  0  0
    0.1381   -1.1909   -0.6465 C   0  0  0  0  0  0  0  0  0  0  0  0
    1.5546   -1.2506   -0.7841 C   0  0  0  0  0  0  0  0  0  0  0  0
    2.3739   -2.3155   -0.7832 C   0  0  0  0  0  0  0  0  0  0  0  0
    2.0825   -3.7926   -0.6494 C   0  0  0  0  0  0  0  0  0  0  0  0
    1.0077   -4.3424   -0.5004 O   0  0  0  0  0  0  0  0  0  0  0  0
    3.3133   -4.4214   -0.7255 N   0  0  0  0  0  0  0  0  0  0  0  0
    4.3448   -3.5062   -0.8849 C   0  0  0  0  0  0  0  0  0  0  0  0
    5.6914   -3.7960   -0.9932 C   0  0  0  0  0  0  0  0  0  0  0  0
    6.5704   -2.7214   -1.1394 C   0  0  0  0  0  0  0  0  0  0  0  0
    6.0742   -1.4022   -1.1651 C   0  0  0  0  0  0  0  0  0  0  0  0
    7.2189   -0.0430   -1.3578 S   0  0  0  0  0  0  0  0  0  0  0  0
    8.4275   -0.5999   -1.9356 O   0  0  0  0  0  0  0  0  0  0  0  0
    6.4909    1.0072   -2.0437 O   0  0  0  0  0  0  0  0  0  0  0  0
    7.5201    0.4333    0.3483 C   0  0  0  0  0  0  0  0  0  0  0  0
    8.5401    1.5460    0.3770 C   0  0  0  0  0  0  0  0  0  0  0  0
    8.1525    2.8979    0.2934 C   0  0  0  0  0  0  0  0  0  0  0  0
    6.4907    3.3789    0.2529 Cl  0  0  0  0  0  0  0  0  0  0  0  0
    9.1043    3.9241    0.2712 C   0  0  0  0  0  0  0  0  0  0  0  0
   10.4616    3.6261    0.3375 C   0  0  0  0  0  0  0  0  0  0  0  0
   10.8681    2.2997    0.4370 C   0  0  0  0  0  0  0  0  0  0  0  0
    9.9200    1.2703    0.4585 C   0  0  0  0  0  0  0  0  0  0  0  0
   10.5289   -0.3413    0.6250 Cl  0  0  0  0  0  0  0  0  0  0  0  0
    4.7017   -1.1272   -1.0734 C   0  0  0  0  0  0  0  0  0  0  0  0
    3.8403   -2.2016   -0.9255 C   0  0  0  0  0  0  0  0  0  0  0  0
   -0.7244   -0.0982   -0.6405 C   0  0  0  0  0  0  0  0  0  0  0  0
   -0.3385    1.3346   -0.7932 C   0  0  0  0  0  0  0  0  0  0  0  0
   -2.0585   -0.5931   -0.4475 C   0  0  0  0  0  0  0  0  0  0  0  0
   -3.2891    0.1950   -0.3757 C   0  0  0  0  0  0  0  0  0  0  0  0
   -3.6174    0.9424   -1.2942 O   0  0  0  0  0  0  0  0  0  0  0  0
   -4.0416    0.0705    0.7838 N   0  0  0  0  0  0  0  0  0  0  0  0
   -3.5420   -0.4381    2.0542 C   0  0  0  0  0  0  0  0  0  0  0  0
   -4.3072    0.3568    3.1012 C   0  0  0  0  0  0  0  0  0  0  0  0
   -5.6578    0.5715    2.4336 C   0  0  0  0  0  0  0  0  0  0  0  0
   -5.2858    0.8248    0.9640 C   0  0  2  0  0  0  0  0  0  0  0  0
   -6.4131    0.3979   -0.0069 C   0  0  0  0  0  0  0  0  0  0  0  0
   -7.7012    1.0616    0.2514 N   0  0  0  0  0  0  0  0  0  0  0  0
   -7.6720    2.4957   -0.0496 C   0  0  0  0  0  0  0  0  0  0  0  0
   -9.1478    2.8619   -0.1040 C   0  0  0  0  0  0  0  0  0  0  0  0
   -9.8618    1.5748   -0.5000 C   0  0  0  0  0  0  0  0  0  0  0  0
   -8.7645    0.5261   -0.6032 C   0  0  0  0  0  0  0  0  0  0  0  0
   -2.9602   -3.5149    0.6951 H   0  0  0  0  0  0  0  0  0  0  0  0
   -2.8591   -3.7973   -1.0537 H   0  0  0  0  0  0  0  0  0  0  0  0
   -4.0127   -2.6225   -0.4180 H   0  0  0  0  0  0  0  0  0  0  0  0
   -0.2966   -3.2671   -0.4907 H   0  0  0  0  0  0  0  0  0  0  0  0
    2.0165   -0.2727   -0.9061 H   0  0  0  0  0  0  0  0  0  0  0  0
    3.4149   -5.4235   -0.6719 H   0  0  0  0  0  0  0  0  0  0  0  0
    6.0589   -4.8158   -0.9723 H   0  0  0  0  0  0  0  0  0  0  0  0
    7.6377   -2.9142   -1.2400 H   0  0  0  0  0  0  0  0  0  0  0  0
    7.8573   -0.4515    0.8950 H   0  0  0  0  0  0  0  0  0  0  0  0
    6.5673    0.7308    0.7946 H   0  0  0  0  0  0  0  0  0  0  0  0
    8.7898    4.9639    0.2011 H   0  0  0  0  0  0  0  0  0  0  0  0
   11.1994    4.4246    0.3166 H   0  0  0  0  0  0  0  0  0  0  0  0
   11.9303    2.0704    0.4971 H   0  0  0  0  0  0  0  0  0  0  0  0
    4.3330   -0.1072   -1.1242 H   0  0  0  0  0  0  0  0  0  0  0  0
    0.0787    1.5110   -1.7903 H   0  0  0  0  0  0  0  0  0  0  0  0
    0.4160    1.6070   -0.0472 H   0  0  0  0  0  0  0  0  0  0  0  0
   -1.1912    2.0070   -0.6598 H   0  0  0  0  0  0  0  0  0  0  0  0
   -2.4606   -0.3135    2.1576 H   0  0  0  0  0  0  0  0  0  0  0  0
   -3.7977   -1.5009    2.1143 H   0  0  0  0  0  0  0  0  0  0  0  0
   -3.8191    1.3239    3.2721 H   0  0  0  0  0  0  0  0  0  0  0  0
   -4.3804   -0.1671    4.0581 H   0  0  0  0  0  0  0  0  0  0  0  0
   -6.2641   -0.3373    2.5377 H   0  0  0  0  0  0  0  0  0  0  0  0
   -6.2139    1.4051    2.8727 H   0  0  0  0  0  0  0  0  0  0  0  0
   -5.0389    1.8844    0.8184 H   0  0  0  0  0  0  0  0  0  0  0  0
   -6.1013    0.5623   -1.0455 H   0  0  0  0  0  0  0  0  0  0  0  0
   -6.5516   -0.6872    0.0965 H   0  0  0  0  0  0  0  0  0  0  0  0
   -7.1498    3.0758    0.7180 H   0  0  0  0  0  0  0  0  0  0  0  0
   -7.2025    2.6974   -1.0209 H   0  0  0  0  0  0  0  0  0  0  0  0
   -9.5006    3.1930    0.8801 H   0  0  0  0  0  0  0  0  0  0  0  0
   -9.3368    3.6699   -0.8176 H   0  0  0  0  0  0  0  0  0  0  0  0
  -10.3967    1.6857   -1.4481 H   0  0  0  0  0  0  0  0  0  0  0  0
  -10.5934    1.3031    0.2690 H   0  0  0  0  0  0  0  0  0  0  0  0
   -8.4387    0.4355   -1.6475 H   0  0  0  0  0  0  0  0  0  0  0  0
   -9.1121   -0.4539   -0.2611 H   0  0  0  0  0  0  0  0  0  0  0  0
  1  2  1  0
  2  3  1  0
  3  4  1  0
  4  5  1  0
  5  6  2  0
  6  7  1  0
  7  8  2  0
  7  9  1  0
  9 10  1  0
 10 11  1  0
 11 12  2  0
 12 13  1  0
 13 14  1  0
 14 15  2  0
 14 16  2  0
 14 17  1  0
 17 18  1  0
 18 19  2  0
 19 20  1  0
 19 21  1  0
 21 22  2  0
 22 23  1  0
 23 24  2  0
 24 25  1  0
 13 26  2  0
 26 27  1  0
  4 28  2  0
 28 29  1  0
 28 30  1  0
 30 31  1  0
 31 32  2  0
 31 33  1  0
 33 34  1  0
 34 35  1  0
 35 36  1  0
 36 37  1  0
 37 38  1  0
 38 39  1  0
 39 40  1  0
 40 41  1  0
 41 42  1  0
 42 43  1  0
 30  2  2  0
 37 33  1  0
 43 39  1  0
 27  6  1  0
 27 10  2  0
 24 18  1  0
  1 44  1  0
  1 45  1  0
  1 46  1  0
  3 47  1  0
  5 48  1  0
  9 49  1  0
 11 50  1  0
 12 51  1  0
 17 52  1  0
 17 53  1  0
 21 54  1  0
 22 55  1  0
 23 56  1  0
 26 57  1  0
 29 58  1  0
 29 59  1  0
 29 60  1  0
 34 61  1  0
 34 62  1  0
 35 63  1  0
 35 64  1  0
 36 65  1  0
 36 66  1  0
 37 67  1  1
 38 68  1  0
 38 69  1  0
 40 70  1  0
 40 71  1  0
 41 72  1  0
 41 73  1  0
 42 74  1  0
 42 75  1  0
 43 76  1  0
 43 77  1  0
M  END
$$$$
