
     RDKit          3D

 51 54  0  0  0  0  0  0  0  0999 V2000
   -4.2862   -2.3508   -0.3557 C   0  0  0  0  0  0  0  0  0  0  0  0
   -3.5230   -1.0358   -0.3149 C   0  0  0  0  0  0  0  0  0  0  0  0
   -4.1995    0.0293   -1.1786 C   0  0  0  0  0  0  0  0  0  0  0  0
   -3.4191    1.3490   -1.2323 C   0  0  0  0  0  0  0  0  0  0  0  0
   -3.3688    2.0514    0.0588 N   0  0  0  0  0  0  0  0  0  0  0  0
   -4.6109    2.6700    0.5393 C   0  0  0  0  0  0  0  0  0  0  0  0
   -4.5191    4.1919    0.6782 C   0  0  0  0  0  0  0  0  0  0  0  0
   -4.4098    4.8339   -0.6372 C   0  0  0  0  0  0  0  0  0  0  0  0
   -4.3345    5.3317   -1.6831 N   0  0  0  0  0  0  0  0  0  0  0  0
   -2.2950    2.0090    0.9520 C   0  0  0  0  0  0  0  0  0  0  0  0
   -2.3852    2.3865    2.1188 O   0  0  0  0  0  0  0  0  0  0  0  0
   -0.9793    1.5156    0.4940 C   0  0  0  0  0  0  0  0  0  0  0  0
   -0.3009    2.1831   -0.5349 C   0  0  0  0  0  0  0  0  0  0  0  0
    0.9585    1.7384   -0.9591 C   0  0  0  0  0  0  0  0  0  0  0  0
    1.5324    0.6278   -0.3207 C   0  0  0  0  0  0  0  0  0  0  0  0
    2.7359    0.0101   -0.5546 N   0  0  0  0  0  0  0  0  0  0  0  0
    2.8007   -0.9680    0.3261 C   0  0  0  0  0  0  0  0  0  0  0  0
    3.9693   -1.9870    0.4974 C   0  0  0  0  0  0  0  0  0  0  0  0
    3.9169   -2.9461    1.4352 N   0  0  0  0  0  0  0  0  0  0  0  0
    5.0815   -3.6012    1.2699 N   0  0  0  0  0  0  0  0  0  0  0  0
    5.8729   -3.1068    0.2681 C   0  0  0  0  0  0  0  0  0  0  0  0
    7.1279   -3.5024   -0.2059 C   0  0  0  0  0  0  0  0  0  0  0  0
    7.6690   -2.7662   -1.2655 C   0  0  0  0  0  0  0  0  0  0  0  0
    6.9818   -1.6860   -1.8200 C   0  0  0  0  0  0  0  0  0  0  0  0
    5.7263   -1.3076   -1.3292 C   0  0  0  0  0  0  0  0  0  0  0  0
    5.1638   -2.0351   -0.2640 C   0  0  0  0  0  0  0  0  0  0  0  0
    1.6820   -1.0004    1.1164 N   0  0  0  0  0  0  0  0  0  0  0  0
    0.8449    0.0075    0.7188 C   0  0  0  0  0  0  0  0  0  0  0  0
   -0.4098    0.4245    1.1679 C   0  0  0  0  0  0  0  0  0  0  0  0
   -5.3075   -2.2231    0.0173 H   0  0  0  0  0  0  0  0  0  0  0  0
   -3.7870   -3.0979    0.2692 H   0  0  0  0  0  0  0  0  0  0  0  0
   -4.3391   -2.7425   -1.3765 H   0  0  0  0  0  0  0  0  0  0  0  0
   -3.4628   -0.6977    0.7251 H   0  0  0  0  0  0  0  0  0  0  0  0
   -2.4993   -1.2065   -0.6669 H   0  0  0  0  0  0  0  0  0  0  0  0
   -4.2954   -0.3509   -2.2033 H   0  0  0  0  0  0  0  0  0  0  0  0
   -5.2175    0.2029   -0.8117 H   0  0  0  0  0  0  0  0  0  0  0  0
   -3.8938    2.0261   -1.9519 H   0  0  0  0  0  0  0  0  0  0  0  0
   -2.4162    1.1445   -1.6103 H   0  0  0  0  0  0  0  0  0  0  0  0
   -5.4344    2.4047   -0.1342 H   0  0  0  0  0  0  0  0  0  0  0  0
   -4.8435    2.2338    1.5185 H   0  0  0  0  0  0  0  0  0  0  0  0
   -5.4241    4.5557    1.1784 H   0  0  0  0  0  0  0  0  0  0  0  0
   -3.6696    4.4850    1.3033 H   0  0  0  0  0  0  0  0  0  0  0  0
   -0.7466    3.0542   -1.0103 H   0  0  0  0  0  0  0  0  0  0  0  0
    1.4914    2.2406   -1.7593 H   0  0  0  0  0  0  0  0  0  0  0  0
    5.2824   -4.3868    1.8778 H   0  0  0  0  0  0  0  0  0  0  0  0
    7.6656   -4.3414    0.2231 H   0  0  0  0  0  0  0  0  0  0  0  0
    8.6436   -3.0403   -1.6643 H   0  0  0  0  0  0  0  0  0  0  0  0
    7.4234   -1.1285   -2.6428 H   0  0  0  0  0  0  0  0  0  0  0  0
    5.1935   -0.4650   -1.7628 H   0  0  0  0  0  0  0  0  0  0  0  0
    1.5352   -1.6703    1.8579 H   0  0  0  0  0  0  0  0  0  0  0  0
   -0.9213   -0.0629    1.9912 H   0  0  0  0  0  0  0  0  0  0  0  0
  1  2  1  0
  2  3  1  0
  3  4  1  0
  4  5  1  0
  5  6  1  0
  6  7  1  0
  7  8  1  0
  8  9  3  0
  5 10  1  0
 10 11  2  0
 10 12  1  0
 12 13  2  0
 13 14  1  0
 14 15  2  0
 15 16  1  0
 16 17  2  0
 17 18  1  0
 18 19  2  0
 19 20  1  0
 20 21  1  0
 21 22  2  0
 22 23  1  0
 23 24  2  0
 24 25  1  0
 25 26  2  0
 17 27  1  0
 27 28  1  0
 28 29  2  0
 29 12  1  0
 28 15  1  0
 26 18  1  0
 26 21  1  0
  1 30  1  0
  1 31  1  0
  1 32  1  0
  2 33  1  0
  2 34  1  0
  3 35  1  0
  3 36  1  0
  4 37  1  0
  4 38  1  0
  6 39  1  0
  6 40  1  0
  7 41  1  0
  7 42  1  0
 13 43  1  0
 14 44  1  0
 20 45  1  0
 22 46  1  0
 23 47  1  0
 24 48  1  0
 25 49  1  0
 27 50  1  0
 29 51  1  0
M  END
$$$$
