
     RDKit          3D

 45 48  0  0  0  0  0  0  0  0999 V2000
   -3.6001   -0.6756    2.2947 O   0  0  0  0  0  0  0  0  0  0  0  0
   -3.4731   -0.4212    1.0991 C   0  0  0  0  0  0  0  0  0  0  0  0
   -2.0976   -0.3095    0.5652 C   0  0  0  0  0  0  0  0  0  0  0  0
   -1.1946    0.5501    1.1945 C   0  0  0  0  0  0  0  0  0  0  0  0
    0.1158    0.6489    0.7188 C   0  0  0  0  0  0  0  0  0  0  0  0
    0.5389   -0.1285   -0.3692 C   0  0  0  0  0  0  0  0  0  0  0  0
    1.8990   -0.0329   -0.9126 C   0  0  0  0  0  0  0  0  0  0  0  0
    3.0085    0.0413   -0.1570 C   0  0  0  0  0  0  0  0  0  0  0  0
    4.3447    0.1246   -0.6744 C   0  0  0  0  0  0  0  0  0  0  0  0
    4.6425    0.1580   -1.9824 N   0  0  0  0  0  0  0  0  0  0  0  0
    5.9814    0.2375   -2.0122 N   0  0  0  0  0  0  0  0  0  0  0  0
    6.5751    0.2579   -0.7812 C   0  0  0  0  0  0  0  0  0  0  0  0
    7.9188    0.3330   -0.4003 C   0  0  0  0  0  0  0  0  0  0  0  0
    8.1933    0.3318    0.9706 C   0  0  0  0  0  0  0  0  0  0  0  0
    7.1663    0.2585    1.9110 C   0  0  0  0  0  0  0  0  0  0  0  0
    5.8273    0.1841    1.5061 C   0  0  0  0  0  0  0  0  0  0  0  0
    5.5260    0.1842    0.1287 C   0  0  0  0  0  0  0  0  0  0  0  0
   -0.3751   -0.9945   -0.9860 C   0  0  0  0  0  0  0  0  0  0  0  0
   -1.6863   -1.0975   -0.5138 C   0  0  0  0  0  0  0  0  0  0  0  0
   -4.5496   -0.2590    0.2240 N   0  0  0  0  0  0  0  0  0  0  0  0
   -5.8874   -0.3627    0.8110 C   0  0  0  0  0  0  0  0  0  0  0  0
   -6.9703   -0.6358   -0.2465 C   0  0  0  0  0  0  0  0  0  0  0  0
   -6.9340    0.3196   -1.3673 N   0  0  0  0  0  0  0  0  0  0  0  0
   -5.5914    0.3231   -1.9691 C   0  0  0  0  0  0  0  0  0  0  0  0
   -4.4793    0.6245   -0.9485 C   0  0  0  0  0  0  0  0  0  0  0  0
   -1.5106    1.1419    2.0504 H   0  0  0  0  0  0  0  0  0  0  0  0
    0.7984    1.3426    1.2041 H   0  0  0  0  0  0  0  0  0  0  0  0
    1.9832   -0.0491   -1.9977 H   0  0  0  0  0  0  0  0  0  0  0  0
    2.9098    0.0249    0.9244 H   0  0  0  0  0  0  0  0  0  0  0  0
    6.4377    0.2755   -2.9158 H   0  0  0  0  0  0  0  0  0  0  0  0
    8.7191    0.3896   -1.1308 H   0  0  0  0  0  0  0  0  0  0  0  0
    9.2259    0.3886    1.3090 H   0  0  0  0  0  0  0  0  0  0  0  0
    7.4059    0.2583    2.9720 H   0  0  0  0  0  0  0  0  0  0  0  0
    5.0386    0.1262    2.2500 H   0  0  0  0  0  0  0  0  0  0  0  0
   -0.0654   -1.6090   -1.8291 H   0  0  0  0  0  0  0  0  0  0  0  0
   -2.3778   -1.7937   -0.9810 H   0  0  0  0  0  0  0  0  0  0  0  0
   -6.0923    0.5809    1.3323 H   0  0  0  0  0  0  0  0  0  0  0  0
   -5.9006   -1.1630    1.5597 H   0  0  0  0  0  0  0  0  0  0  0  0
   -7.9565   -0.5888    0.2276 H   0  0  0  0  0  0  0  0  0  0  0  0
   -6.8490   -1.6534   -0.6387 H   0  0  0  0  0  0  0  0  0  0  0  0
   -7.6174    0.0368   -2.0689 H   0  0  0  0  0  0  0  0  0  0  0  0
   -5.5623    1.0753   -2.7647 H   0  0  0  0  0  0  0  0  0  0  0  0
   -5.4029   -0.6509   -2.4379 H   0  0  0  0  0  0  0  0  0  0  0  0
   -4.5736    1.6537   -0.5792 H   0  0  0  0  0  0  0  0  0  0  0  0
   -3.5089    0.5538   -1.4435 H   0  0  0  0  0  0  0  0  0  0  0  0
  1  2  2  0
  2  3  1  0
  3  4  1  0
  4  5  2  0
  5  6  1  0
  6  7  1  0
  7  8  2  0
  8  9  1  0
  9 10  2  0
 10 11  1  0
 11 12  1  0
 12 13  2  0
 13 14  1  0
 14 15  2  0
 15 16  1  0
 16 17  2  0
  6 18  2  0
 18 19  1  0
  2 20  1  0
 20 21  1  0
 21 22  1  0
 22 23  1  0
 23 24  1  0
 24 25  1  0
 19  3  2  0
 25 20  1  0
 17  9  1  0
 17 12  1  0
  4 26  1  0
  5 27  1  0
  7 28  1  0
  8 29  1  0
 11 30  1  0
 13 31  1  0
 14 32  1  0
 15 33  1  0
 16 34  1  0
 18 35  1  0
 19 36  1  0
 21 37  1  0
 21 38  1  0
 22 39  1  0
 22 40  1  0
 23 41  1  0
 24 42  1  0
 24 43  1  0
 25 44  1  0
 25 45  1  0
M  END
$$$$
