
     RDKit          3D

 58 62  0  0  0  0  0  0  0  0999 V2000
   -9.6591   -1.3922    0.4991 C   0  0  0  0  0  0  0  0  0  0  0  0
   -9.9152    0.0428    0.0580 C   0  0  0  0  0  0  0  0  0  0  0  0
   -8.8909    1.0307    0.6153 C   0  0  0  0  0  0  0  0  0  0  0  0
   -7.5568    0.8467    0.0771 N   0  0  0  0  0  0  0  0  0  0  0  0
   -6.4826    0.2977    0.7191 C   0  0  0  0  0  0  0  0  0  0  0  0
   -5.4314    0.3539   -0.1728 C   0  0  0  0  0  0  0  0  0  0  0  0
   -4.1036   -0.1436    0.0988 C   0  0  0  0  0  0  0  0  0  0  0  0
   -3.8929   -1.4232    0.5825 C   0  0  0  0  0  0  0  0  0  0  0  0
   -2.6856   -1.9578    0.8393 N   0  0  0  0  0  0  0  0  0  0  0  0
   -1.5730   -1.2259    0.6318 C   0  0  0  0  0  0  0  0  0  0  0  0
   -0.3806   -1.8850    0.9014 N   0  0  0  0  0  0  0  0  0  0  0  0
   -1.6655    0.1096    0.1522 C   0  0  0  0  0  0  0  0  0  0  0  0
   -0.6350    1.0965   -0.1328 C   0  0  0  0  0  0  0  0  0  0  0  0
    0.8050    0.9659    0.0379 C   0  0  0  0  0  0  0  0  0  0  0  0
    1.6490    0.9215   -1.0752 C   0  0  0  0  0  0  0  0  0  0  0  0
    3.0323    0.7842   -0.9083 C   0  0  0  0  0  0  0  0  0  0  0  0
    3.5875    0.6839    0.3694 C   0  0  0  0  0  0  0  0  0  0  0  0
    4.9683    0.5442    0.6211 N   0  0  0  0  0  0  0  0  0  0  0  0
    5.9774    0.3161   -0.3046 C   0  0  0  0  0  0  0  0  0  0  0  0
    5.8017    0.1204   -1.4995 O   0  0  0  0  0  0  0  0  0  0  0  0
    7.2154    0.3427    0.3242 N   0  0  0  0  0  0  0  0  0  0  0  0
    8.4749    0.0579   -0.2463 C   0  0  0  0  0  0  0  0  0  0  0  0
    8.6510   -0.4760   -1.5268 C   0  0  0  0  0  0  0  0  0  0  0  0
    9.9345   -0.7422   -2.0202 C   0  0  0  0  0  0  0  0  0  0  0  0
   11.0525   -0.4814   -1.2338 C   0  0  0  0  0  0  0  0  0  0  0  0
   10.8762    0.0416    0.0394 C   0  0  0  0  0  0  0  0  0  0  0  0
   11.9478    0.2923    0.8034 F   0  0  0  0  0  0  0  0  0  0  0  0
    9.6049    0.3104    0.5393 C   0  0  0  0  0  0  0  0  0  0  0  0
    2.7374    0.7394    1.4815 C   0  0  0  0  0  0  0  0  0  0  0  0
    1.3554    0.8790    1.3188 C   0  0  0  0  0  0  0  0  0  0  0  0
   -1.1525    2.2869   -0.5928 C   0  0  0  0  0  0  0  0  0  0  0  0
   -2.8446    2.2636   -0.6827 S   0  0  0  0  0  0  0  0  0  0  0  0
   -2.9462    0.6306   -0.1148 C   0  0  0  0  0  0  0  0  0  0  0  0
   -5.9869    0.9505   -1.3267 C   0  0  0  0  0  0  0  0  0  0  0  0
   -7.2795    1.2527   -1.1762 N   0  0  0  0  0  0  0  0  0  0  0  0
   -8.7141   -1.7714    0.0981 H   0  0  0  0  0  0  0  0  0  0  0  0
   -9.6270   -1.4679    1.5910 H   0  0  0  0  0  0  0  0  0  0  0  0
  -10.4601   -2.0454    0.1380 H   0  0  0  0  0  0  0  0  0  0  0  0
   -9.9322    0.0852   -1.0381 H   0  0  0  0  0  0  0  0  0  0  0  0
  -10.9114    0.3405    0.4057 H   0  0  0  0  0  0  0  0  0  0  0  0
   -8.8281    0.9540    1.7070 H   0  0  0  0  0  0  0  0  0  0  0  0
   -9.1888    2.0584    0.3742 H   0  0  0  0  0  0  0  0  0  0  0  0
   -6.5569   -0.0704    1.7335 H   0  0  0  0  0  0  0  0  0  0  0  0
   -4.7277   -2.0934    0.7731 H   0  0  0  0  0  0  0  0  0  0  0  0
    0.3921   -1.6108    0.3091 H   0  0  0  0  0  0  0  0  0  0  0  0
   -0.5522   -2.8824    0.9606 H   0  0  0  0  0  0  0  0  0  0  0  0
    1.2435    0.9914   -2.0821 H   0  0  0  0  0  0  0  0  0  0  0  0
    3.6490    0.7678   -1.8013 H   0  0  0  0  0  0  0  0  0  0  0  0
    5.2308    0.4607    1.5910 H   0  0  0  0  0  0  0  0  0  0  0  0
    7.2313    0.7435    1.2492 H   0  0  0  0  0  0  0  0  0  0  0  0
    7.8060   -0.7036   -2.1701 H   0  0  0  0  0  0  0  0  0  0  0  0
   10.0530   -1.1546   -3.0193 H   0  0  0  0  0  0  0  0  0  0  0  0
   12.0535   -0.6804   -1.6037 H   0  0  0  0  0  0  0  0  0  0  0  0
    9.5235    0.7178    1.5413 H   0  0  0  0  0  0  0  0  0  0  0  0
    3.1321    0.6668    2.4915 H   0  0  0  0  0  0  0  0  0  0  0  0
    0.7131    0.9062    2.1968 H   0  0  0  0  0  0  0  0  0  0  0  0
   -0.6117    3.1830   -0.8694 H   0  0  0  0  0  0  0  0  0  0  0  0
   -5.5070    1.1707   -2.2724 H   0  0  0  0  0  0  0  0  0  0  0  0
  1  2  1  0
  2  3  1  0
  3  4  1  0
  4  5  1  0
  5  6  2  0
  6  7  1  0
  7  8  1  0
  8  9  2  0
  9 10  1  0
 10 11  1  0
 10 12  2  0
 12 13  1  0
 13 14  1  0
 14 15  1  0
 15 16  2  0
 16 17  1  0
 17 18  1  0
 18 19  1  0
 19 20  2  0
 19 21  1  0
 21 22  1  0
 22 23  2  0
 23 24  1  0
 24 25  2  0
 25 26  1  0
 26 27  1  0
 26 28  2  0
 17 29  2  0
 29 30  1  0
 13 31  2  0
 31 32  1  0
 32 33  1  0
  6 34  1  0
 34 35  2  0
 35  4  1  0
 33  7  2  0
 33 12  1  0
 30 14  2  0
 28 22  1  0
  1 36  1  0
  1 37  1  0
  1 38  1  0
  2 39  1  0
  2 40  1  0
  3 41  1  0
  3 42  1  0
  5 43  1  0
  8 44  1  0
 11 45  1  0
 11 46  1  0
 15 47  1  0
 16 48  1  0
 18 49  1  0
 21 50  1  0
 23 51  1  0
 24 52  1  0
 25 53  1  0
 28 54  1  0
 29 55  1  0
 30 56  1  0
 31 57  1  0
 34 58  1  0
M  END
$$$$
