
     RDKit          3D

 49 51  0  0  0  0  0  0  0  0999 V2000
    7.7767    2.8210   -0.9289 C   0  0  0  0  0  0  0  0  0  0  0  0
    7.5450    1.4799   -0.5164 O   0  0  0  0  0  0  0  0  0  0  0  0
    6.2516    1.0357   -0.5521 C   0  0  0  0  0  0  0  0  0  0  0  0
    5.1542    1.7393   -1.0513 C   0  0  0  0  0  0  0  0  0  0  0  0
    3.8775    1.1655   -1.0212 C   0  0  0  0  0  0  0  0  0  0  0  0
    3.6837   -0.1222   -0.5047 C   0  0  0  0  0  0  0  0  0  0  0  0
    2.3067   -0.7445   -0.4583 C   0  0  0  0  0  0  0  0  0  0  0  0
    1.8701   -0.7315    0.9033 O   0  0  0  0  0  0  0  0  0  0  0  0
    0.5094   -0.6530    1.0552 C   0  0  0  0  0  0  0  0  0  0  0  0
    0.0863    0.2993    1.9861 C   0  0  0  0  0  0  0  0  0  0  0  0
   -1.2706    0.4785    2.2503 C   0  0  0  0  0  0  0  0  0  0  0  0
   -2.2218   -0.3116    1.5971 C   0  0  0  0  0  0  0  0  0  0  0  0
   -3.6995   -0.1218    1.8717 C   0  0  0  0  0  0  0  0  0  0  0  0
   -4.4929    0.2635    0.6569 C   0  0  0  0  0  0  0  0  0  0  0  0
   -4.3402    1.5071    0.0795 C   0  0  0  0  0  0  0  0  0  0  0  0
   -4.9777    1.9034   -1.0357 N   0  0  0  0  0  0  0  0  0  0  0  0
   -5.7683    0.9989   -1.6115 C   0  0  0  0  0  0  0  0  0  0  0  0
   -6.4265    1.3747   -2.7624 N   0  0  0  0  0  0  0  0  0  0  0  0
   -6.0044   -0.2248   -1.1331 N   0  0  0  0  0  0  0  0  0  0  0  0
   -5.3662   -0.5758   -0.0079 C   0  0  0  0  0  0  0  0  0  0  0  0
   -5.6160   -1.8749    0.4273 N   0  0  0  0  0  0  0  0  0  0  0  0
   -1.7860   -1.2967    0.6915 C   0  0  0  0  0  0  0  0  0  0  0  0
   -0.4249   -1.4795    0.4138 C   0  0  0  0  0  0  0  0  0  0  0  0
    0.0643   -2.4312   -0.4398 O   0  0  0  0  0  0  0  0  0  0  0  0
   -0.8700   -3.3069   -1.0614 C   0  0  0  0  0  0  0  0  0  0  0  0
    4.7891   -0.8219   -0.0056 C   0  0  0  0  0  0  0  0  0  0  0  0
    6.0610   -0.2466   -0.0335 C   0  0  0  0  0  0  0  0  0  0  0  0
    8.8400    3.0338   -0.7829 H   0  0  0  0  0  0  0  0  0  0  0  0
    7.5527    2.9513   -1.9929 H   0  0  0  0  0  0  0  0  0  0  0  0
    7.2105    3.5286   -0.3143 H   0  0  0  0  0  0  0  0  0  0  0  0
    5.2569    2.7366   -1.4670 H   0  0  0  0  0  0  0  0  0  0  0  0
    3.0318    1.7336   -1.4029 H   0  0  0  0  0  0  0  0  0  0  0  0
    1.6246   -0.1869   -1.1162 H   0  0  0  0  0  0  0  0  0  0  0  0
    2.3824   -1.7771   -0.8208 H   0  0  0  0  0  0  0  0  0  0  0  0
    0.8244    0.9112    2.4993 H   0  0  0  0  0  0  0  0  0  0  0  0
   -1.5721    1.2355    2.9702 H   0  0  0  0  0  0  0  0  0  0  0  0
   -4.0813   -1.0392    2.3363 H   0  0  0  0  0  0  0  0  0  0  0  0
   -3.8420    0.6592    2.6321 H   0  0  0  0  0  0  0  0  0  0  0  0
   -3.6671    2.2474    0.5025 H   0  0  0  0  0  0  0  0  0  0  0  0
   -7.2657    0.8275   -2.8856 H   0  0  0  0  0  0  0  0  0  0  0  0
   -6.5049    2.3816   -2.8019 H   0  0  0  0  0  0  0  0  0  0  0  0
   -5.9578   -1.9010    1.3817 H   0  0  0  0  0  0  0  0  0  0  0  0
   -6.2951   -2.2780   -0.2167 H   0  0  0  0  0  0  0  0  0  0  0  0
   -2.5410   -1.9147    0.2124 H   0  0  0  0  0  0  0  0  0  0  0  0
   -1.4224   -3.8918   -0.3172 H   0  0  0  0  0  0  0  0  0  0  0  0
   -1.5497   -2.7546   -1.7191 H   0  0  0  0  0  0  0  0  0  0  0  0
   -0.3059   -4.0105   -1.6796 H   0  0  0  0  0  0  0  0  0  0  0  0
    4.6620   -1.8164    0.4182 H   0  0  0  0  0  0  0  0  0  0  0  0
    6.9091   -0.7996    0.3640 H   0  0  0  0  0  0  0  0  0  0  0  0
  1  2  1  0
  2  3  1  0
  3  4  1  0
  4  5  2  0
  5  6  1  0
  6  7  1  0
  7  8  1  0
  8  9  1  0
  9 10  1  0
 10 11  2  0
 11 12  1  0
 12 13  1  0
 13 14  1  0
 14 15  2  0
 15 16  1  0
 16 17  2  0
 17 18  1  0
 17 19  1  0
 19 20  2  0
 20 21  1  0
 12 22  2  0
 22 23  1  0
 23 24  1  0
 24 25  1  0
  6 26  2  0
 26 27  1  0
 27  3  2  0
 23  9  2  0
 20 14  1  0
  1 28  1  0
  1 29  1  0
  1 30  1  0
  4 31  1  0
  5 32  1  0
  7 33  1  0
  7 34  1  0
 10 35  1  0
 11 36  1  0
 13 37  1  0
 13 38  1  0
 15 39  1  0
 18 40  1  0
 18 41  1  0
 21 42  1  0
 21 43  1  0
 22 44  1  0
 25 45  1  0
 25 46  1  0
 25 47  1  0
 26 48  1  0
 27 49  1  0
M  END
$$$$
