
     RDKit          3D

 61 65  0  0  0  0  0  0  0  0999 V2000
   -3.5703    6.2517    1.8385 C   0  0  0  0  0  0  0  0  0  0  0  0
   -3.1771    4.9599    1.2316 C   0  0  0  0  0  0  0  0  0  0  0  0
   -3.6411    3.6925    1.5178 C   0  0  0  0  0  0  0  0  0  0  0  0
   -2.9535    2.8301    0.6920 N   0  0  0  0  0  0  0  0  0  0  0  0
   -3.0635    1.4129    0.6301 C   0  0  0  0  0  0  0  0  0  0  0  0
   -2.1066    0.6585   -0.0660 C   0  0  0  0  0  0  0  0  0  0  0  0
   -2.2184   -0.7353   -0.1617 C   0  0  0  0  0  0  0  0  0  0  0  0
   -1.1974   -1.4136   -0.8566 N   0  0  0  0  0  0  0  0  0  0  0  0
   -1.1739   -2.7491   -1.2156 C   0  0  0  0  0  0  0  0  0  0  0  0
   -2.0961   -3.5495   -1.1187 O   0  0  0  0  0  0  0  0  0  0  0  0
    0.1062   -3.2033   -1.8243 C   0  0  0  0  0  0  0  0  0  0  0  0
    0.0713   -4.1337   -2.8605 C   0  0  0  0  0  0  0  0  0  0  0  0
    1.2633   -4.5622   -3.4408 C   0  0  0  0  0  0  0  0  0  0  0  0
    2.5020   -4.0770   -2.9826 C   0  0  0  0  0  0  0  0  0  0  0  0
    3.7588   -4.5714   -3.6515 C   0  0  0  0  0  0  0  0  0  0  0  0
    2.5504   -3.1734   -1.8951 C   0  0  0  0  0  0  0  0  0  0  0  0
    3.7898   -2.6907   -1.4404 N   0  0  0  0  0  0  0  0  0  0  0  0
    4.1298   -1.7091   -0.5116 C   0  0  0  0  0  0  0  0  0  0  0  0
    5.3395   -1.8512    0.0508 N   0  0  0  0  0  0  0  0  0  0  0  0
    5.7040   -0.9393    0.9687 C   0  0  0  0  0  0  0  0  0  0  0  0
    4.9125    0.1172    1.3376 C   0  0  0  0  0  0  0  0  0  0  0  0
    3.6974    0.2124    0.6904 C   0  0  0  0  0  0  0  0  0  0  0  0
    2.7671    1.3162    0.9389 C   0  0  0  0  0  0  0  0  0  0  0  0
    2.2800    2.1141   -0.1050 C   0  0  0  0  0  0  0  0  0  0  0  0
    1.4387    3.1920    0.1673 C   0  0  0  0  0  0  0  0  0  0  0  0
    1.0817    3.4329    1.4836 C   0  0  0  0  0  0  0  0  0  0  0  0
    1.5057    2.6784    2.5192 N   0  0  0  0  0  0  0  0  0  0  0  0
    2.3342    1.6467    2.2231 C   0  0  0  0  0  0  0  0  0  0  0  0
    3.3009   -0.6896   -0.2339 N   0  0  0  0  0  0  0  0  0  0  0  0
    1.3371   -2.7348   -1.3449 C   0  0  0  0  0  0  0  0  0  0  0  0
   -3.2940   -1.3769    0.4522 C   0  0  0  0  0  0  0  0  0  0  0  0
   -4.2486   -0.6446    1.1760 C   0  0  0  0  0  0  0  0  0  0  0  0
   -5.4154   -1.3394    1.8362 C   0  0  0  0  0  0  0  0  0  0  0  0
   -5.2489   -2.6816    1.9834 F   0  0  0  0  0  0  0  0  0  0  0  0
   -6.5743   -1.1748    1.1398 F   0  0  0  0  0  0  0  0  0  0  0  0
   -5.6644   -0.8576    3.0878 F   0  0  0  0  0  0  0  0  0  0  0  0
   -4.1266    0.7534    1.2588 C   0  0  0  0  0  0  0  0  0  0  0  0
   -2.1444    3.6353   -0.0802 C   0  0  0  0  0  0  0  0  0  0  0  0
   -2.2370    4.9079    0.2363 N   0  0  0  0  0  0  0  0  0  0  0  0
   -4.4096    6.6877    1.2864 H   0  0  0  0  0  0  0  0  0  0  0  0
   -3.8734    6.1201    2.8820 H   0  0  0  0  0  0  0  0  0  0  0  0
   -2.7361    6.9605    1.8154 H   0  0  0  0  0  0  0  0  0  0  0  0
   -4.3635    3.3608    2.2483 H   0  0  0  0  0  0  0  0  0  0  0  0
   -1.2481    1.1376   -0.5274 H   0  0  0  0  0  0  0  0  0  0  0  0
   -0.4181   -0.8474   -1.1727 H   0  0  0  0  0  0  0  0  0  0  0  0
   -0.8798   -4.5211   -3.2201 H   0  0  0  0  0  0  0  0  0  0  0  0
    1.2202   -5.2799   -4.2579 H   0  0  0  0  0  0  0  0  0  0  0  0
    4.2886   -5.2640   -2.9892 H   0  0  0  0  0  0  0  0  0  0  0  0
    4.4161   -3.7331   -3.9064 H   0  0  0  0  0  0  0  0  0  0  0  0
    3.5346   -5.0990   -4.5860 H   0  0  0  0  0  0  0  0  0  0  0  0
    4.5651   -3.3366   -1.5142 H   0  0  0  0  0  0  0  0  0  0  0  0
    6.6861   -1.0881    1.4092 H   0  0  0  0  0  0  0  0  0  0  0  0
    5.2447    0.8423    2.0695 H   0  0  0  0  0  0  0  0  0  0  0  0
    2.5770    1.9092   -1.1319 H   0  0  0  0  0  0  0  0  0  0  0  0
    1.0754    3.8358   -0.6270 H   0  0  0  0  0  0  0  0  0  0  0  0
    0.4245    4.2597    1.7437 H   0  0  0  0  0  0  0  0  0  0  0  0
    2.6472    1.0684    3.0897 H   0  0  0  0  0  0  0  0  0  0  0  0
    1.3452   -2.0624   -0.4920 H   0  0  0  0  0  0  0  0  0  0  0  0
   -3.4008   -2.4583    0.4025 H   0  0  0  0  0  0  0  0  0  0  0  0
   -4.8947    1.3001    1.8022 H   0  0  0  0  0  0  0  0  0  0  0  0
   -1.5193    3.2535   -0.8736 H   0  0  0  0  0  0  0  0  0  0  0  0
  1  2  1  0
  2  3  2  0
  3  4  1  0
  4  5  1  0
  5  6  1  0
  6  7  2  0
  7  8  1  0
  8  9  1  0
  9 10  2  0
  9 11  1  0
 11 12  1  0
 12 13  2  0
 13 14  1  0
 14 15  1  0
 14 16  2  0
 16 17  1  0
 17 18  1  0
 18 19  2  0
 19 20  1  0
 20 21  2  0
 21 22  1  0
 22 23  1  0
 23 24  1  0
 24 25  2  0
 25 26  1  0
 26 27  2  0
 27 28  1  0
 22 29  2  0
 16 30  1  0
  7 31  1  0
 31 32  2  0
 32 33  1  0
 33 34  1  0
 33 35  1  0
 33 36  1  0
 32 37  1  0
  4 38  1  0
 38 39  2  0
 39  2  1  0
 37  5  2  0
 30 11  2  0
 29 18  1  0
 28 23  2  0
  1 40  1  0
  1 41  1  0
  1 42  1  0
  3 43  1  0
  6 44  1  0
  8 45  1  0
 12 46  1  0
 13 47  1  0
 15 48  1  0
 15 49  1  0
 15 50  1  0
 17 51  1  0
 20 52  1  0
 21 53  1  0
 24 54  1  0
 25 55  1  0
 26 56  1  0
 28 57  1  0
 30 58  1  0
 31 59  1  0
 37 60  1  0
 38 61  1  0
M  END
$$$$
