
     RDKit          3D

 73 77  0  0  0  0  0  0  0  0999 V2000
  -11.0778    2.2245   -0.4190 C   0  0  0  0  0  0  0  0  0  0  0  0
   -9.6966    1.9163   -0.6179 O   0  0  0  0  0  0  0  0  0  0  0  0
   -9.2645    0.8454    0.0938 C   0  0  0  0  0  0  0  0  0  0  0  0
   -9.9436    0.1643    0.8457 O   0  0  0  0  0  0  0  0  0  0  0  0
   -7.8179    0.5988   -0.1565 C   0  0  0  0  0  0  0  0  0  0  0  0
   -7.1982   -0.4622    0.5398 C   0  0  0  0  0  0  0  0  0  0  0  0
   -5.8380   -0.7557    0.3617 C   0  0  0  0  0  0  0  0  0  0  0  0
   -5.1014    0.0212   -0.5152 C   0  0  0  0  0  0  0  0  0  0  0  0
   -5.7334    1.0658   -1.2043 C   0  0  0  0  0  0  0  0  0  0  0  0
   -7.0716    1.3784   -1.0494 C   0  0  0  0  0  0  0  0  0  0  0  0
   -4.8355    1.7195   -2.0412 N   0  0  0  0  0  0  0  0  0  0  0  0
   -3.5740    1.1628   -1.9553 C   0  0  0  0  0  0  0  0  0  0  0  0
   -2.5696    1.5210   -2.5442 O   0  0  0  0  0  0  0  0  0  0  0  0
   -3.6949    0.0329   -0.9604 C   0  0  0  0  0  0  0  0  0  0  0  0
   -2.6128   -0.7121   -0.6366 C   0  0  0  0  0  0  0  0  0  0  0  0
   -1.3462   -0.5630   -1.2281 N   0  0  0  0  0  0  0  0  0  0  0  0
   -0.1413   -0.5789   -0.4843 C   0  0  0  0  0  0  0  0  0  0  0  0
    0.4279   -1.7760   -0.0470 C   0  0  0  0  0  0  0  0  0  0  0  0
    1.5801   -1.7735    0.7480 C   0  0  0  0  0  0  0  0  0  0  0  0
    2.1979   -0.5714    1.1164 C   0  0  0  0  0  0  0  0  0  0  0  0
    3.3534   -0.5766    1.9555 N   0  0  0  0  0  0  0  0  0  0  0  0
    3.4207   -1.6016    2.9936 C   0  0  0  0  0  0  0  0  0  0  0  0
    4.4008    0.3551    1.9039 C   0  0  0  0  0  0  0  0  0  0  0  0
    5.1739    0.5071    2.8571 O   0  0  0  0  0  0  0  0  0  0  0  0
    4.6116    1.1207    0.5752 C   0  0  0  0  0  0  0  0  0  0  0  0
    6.0492    1.3139    0.2692 N   0  0  0  0  0  0  0  0  0  0  0  0
    6.7247    0.0279   -0.0043 C   0  0  0  0  0  0  0  0  0  0  0  0
    8.2084    0.2217   -0.3952 C   0  0  0  0  0  0  0  0  0  0  0  0
    8.3648    1.1074   -1.5663 N   0  0  0  0  0  0  0  0  0  0  0  0
    9.7786    1.3186   -1.8671 C   0  0  0  0  0  0  0  0  0  0  0  0
    7.6927    2.3927   -1.2913 C   0  0  0  0  0  0  0  0  0  0  0  0
    6.2097    2.2017   -0.8991 C   0  0  0  0  0  0  0  0  0  0  0  0
    1.6054    0.6279    0.7022 C   0  0  0  0  0  0  0  0  0  0  0  0
    0.4520    0.6244   -0.0914 C   0  0  0  0  0  0  0  0  0  0  0  0
   -2.7559   -1.7960    0.3599 C   0  0  0  0  0  0  0  0  0  0  0  0
   -2.6168   -1.5279    1.7295 C   0  0  0  0  0  0  0  0  0  0  0  0
   -2.7575   -2.5544    2.6644 C   0  0  0  0  0  0  0  0  0  0  0  0
   -3.0370   -3.8525    2.2380 C   0  0  0  0  0  0  0  0  0  0  0  0
   -3.1724   -4.1290    0.8772 C   0  0  0  0  0  0  0  0  0  0  0  0
   -3.0311   -3.1049   -0.0607 C   0  0  0  0  0  0  0  0  0  0  0  0
  -11.7068    1.4126   -0.7984 H   0  0  0  0  0  0  0  0  0  0  0  0
  -11.3059    3.1335   -0.9832 H   0  0  0  0  0  0  0  0  0  0  0  0
  -11.2844    2.4143    0.6395 H   0  0  0  0  0  0  0  0  0  0  0  0
   -7.7810   -1.0700    1.2324 H   0  0  0  0  0  0  0  0  0  0  0  0
   -5.4018   -1.5811    0.9128 H   0  0  0  0  0  0  0  0  0  0  0  0
   -7.5165    2.1976   -1.6028 H   0  0  0  0  0  0  0  0  0  0  0  0
   -5.0447    2.5057   -2.6378 H   0  0  0  0  0  0  0  0  0  0  0  0
   -1.3476    0.2498   -1.8594 H   0  0  0  0  0  0  0  0  0  0  0  0
   -0.0228   -2.7246   -0.3278 H   0  0  0  0  0  0  0  0  0  0  0  0
    1.9913   -2.7333    1.0475 H   0  0  0  0  0  0  0  0  0  0  0  0
    3.7996   -2.5273    2.5493 H   0  0  0  0  0  0  0  0  0  0  0  0
    2.4299   -1.7689    3.4282 H   0  0  0  0  0  0  0  0  0  0  0  0
    4.0964   -1.3168    3.8055 H   0  0  0  0  0  0  0  0  0  0  0  0
    4.1330    0.5999   -0.2603 H   0  0  0  0  0  0  0  0  0  0  0  0
    4.1429    2.1026    0.7064 H   0  0  0  0  0  0  0  0  0  0  0  0
    6.2103   -0.5128   -0.8104 H   0  0  0  0  0  0  0  0  0  0  0  0
    6.6970   -0.6118    0.8850 H   0  0  0  0  0  0  0  0  0  0  0  0
    8.7568    0.6216    0.4689 H   0  0  0  0  0  0  0  0  0  0  0  0
    8.6332   -0.7632   -0.6248 H   0  0  0  0  0  0  0  0  0  0  0  0
   10.3148    1.7974   -1.0391 H   0  0  0  0  0  0  0  0  0  0  0  0
   10.2709    0.3651   -2.0895 H   0  0  0  0  0  0  0  0  0  0  0  0
    9.8899    1.9465   -2.7582 H   0  0  0  0  0  0  0  0  0  0  0  0
    8.2082    2.9356   -0.4870 H   0  0  0  0  0  0  0  0  0  0  0  0
    7.7318    3.0230   -2.1881 H   0  0  0  0  0  0  0  0  0  0  0  0
    5.6596    1.8042   -1.7630 H   0  0  0  0  0  0  0  0  0  0  0  0
    5.7884    3.1882   -0.6690 H   0  0  0  0  0  0  0  0  0  0  0  0
    1.9858    1.5887    1.0354 H   0  0  0  0  0  0  0  0  0  0  0  0
    0.0036    1.5724   -0.3803 H   0  0  0  0  0  0  0  0  0  0  0  0
   -2.3892   -0.5205    2.0683 H   0  0  0  0  0  0  0  0  0  0  0  0
   -2.6456   -2.3415    3.7240 H   0  0  0  0  0  0  0  0  0  0  0  0
   -3.1442   -4.6515    2.9676 H   0  0  0  0  0  0  0  0  0  0  0  0
   -3.3857   -5.1427    0.5462 H   0  0  0  0  0  0  0  0  0  0  0  0
   -3.1306   -3.3272   -1.1212 H   0  0  0  0  0  0  0  0  0  0  0  0
  1  2  1  0
  2  3  1  0
  3  4  2  0
  3  5  1  0
  5  6  1  0
  6  7  2  0
  7  8  1  0
  8  9  2  0
  9 10  1  0
  9 11  1  0
 11 12  1  0
 12 13  2  0
 12 14  1  0
 14 15  2  0
 15 16  1  0
 16 17  1  0
 17 18  1  0
 18 19  2  0
 19 20  1  0
 20 21  1  0
 21 22  1  0
 21 23  1  0
 23 24  2  0
 23 25  1  0
 25 26  1  0
 26 27  1  0
 27 28  1  0
 28 29  1  0
 29 30  1  0
 29 31  1  0
 31 32  1  0
 20 33  2  0
 33 34  1  0
 15 35  1  0
 35 36  2  0
 36 37  1  0
 37 38  2  0
 38 39  1  0
 39 40  2  0
 10  5  2  0
 34 17  2  0
 40 35  1  0
 14  8  1  0
 32 26  1  0
  1 41  1  0
  1 42  1  0
  1 43  1  0
  6 44  1  0
  7 45  1  0
 10 46  1  0
 11 47  1  0
 16 48  1  0
 18 49  1  0
 19 50  1  0
 22 51  1  0
 22 52  1  0
 22 53  1  0
 25 54  1  0
 25 55  1  0
 27 56  1  0
 27 57  1  0
 28 58  1  0
 28 59  1  0
 30 60  1  0
 30 61  1  0
 30 62  1  0
 31 63  1  0
 31 64  1  0
 32 65  1  0
 32 66  1  0
 33 67  1  0
 34 68  1  0
 36 69  1  0
 37 70  1  0
 38 71  1  0
 39 72  1  0
 40 73  1  0
M  END
$$$$
