
     RDKit          3D

 50 54  0  0  0  0  0  0  0  0999 V2000
    8.0134   -0.7998    0.1067 C   0  0  0  0  0  0  0  0  0  0  0  0
    6.5870   -0.6269    0.3713 N   0  0  0  0  0  0  0  0  0  0  0  0
    5.7813   -1.4659   -0.5437 C   0  0  0  0  0  0  0  0  0  0  0  0
    4.2609   -1.2810   -0.3287 C   0  0  0  0  0  0  0  0  0  0  0  0
    3.8855    0.1397   -0.4906 N   0  0  0  0  0  0  0  0  0  0  0  0
    2.5156    0.4617   -0.5245 C   0  0  0  0  0  0  0  0  0  0  0  0
    2.1275    1.7154   -1.0382 C   0  0  0  0  0  0  0  0  0  0  0  0
    0.7851    2.1210   -1.1169 C   0  0  0  0  0  0  0  0  0  0  0  0
   -0.2019    1.2378   -0.6711 C   0  0  0  0  0  0  0  0  0  0  0  0
   -1.5671    1.3821   -0.6398 N   0  0  0  0  0  0  0  0  0  0  0  0
   -2.0471    0.2584   -0.1229 C   0  0  0  0  0  0  0  0  0  0  0  0
   -3.4014   -0.1435    0.1372 C   0  0  0  0  0  0  0  0  0  0  0  0
   -4.4158    0.7490   -0.0093 C   0  0  0  0  0  0  0  0  0  0  0  0
   -4.2316    2.0922   -0.3195 N   0  0  0  0  0  0  0  0  0  0  0  0
   -5.8244    0.3012    0.1928 C   0  0  0  0  0  0  0  0  0  0  0  0
   -6.9476    1.1187   -0.0131 C   0  0  0  0  0  0  0  0  0  0  0  0
   -6.8135    2.3778   -0.4613 F   0  0  0  0  0  0  0  0  0  0  0  0
   -8.2474    0.6581    0.2074 C   0  0  0  0  0  0  0  0  0  0  0  0
   -8.4590   -0.6473    0.6376 C   0  0  0  0  0  0  0  0  0  0  0  0
   -7.3674   -1.4889    0.8347 C   0  0  0  0  0  0  0  0  0  0  0  0
   -6.0690   -1.0152    0.6074 C   0  0  0  0  0  0  0  0  0  0  0  0
   -5.0003   -1.8920    0.7889 N   0  0  0  0  0  0  0  0  0  0  0  0
   -3.6976   -1.5520    0.5708 C   0  0  0  0  0  0  0  0  0  0  0  0
   -2.8102   -2.3890    0.7422 O   0  0  0  0  0  0  0  0  0  0  0  0
   -1.0059   -0.6013    0.1605 N   0  0  0  0  0  0  0  0  0  0  0  0
    0.1767    0.0010   -0.1768 C   0  0  0  0  0  0  0  0  0  0  0  0
    1.5090   -0.4233   -0.0950 C   0  0  0  0  0  0  0  0  0  0  0  0
    4.6759    1.0245    0.4012 C   0  0  0  0  0  0  0  0  0  0  0  0
    6.1921    0.7888    0.1961 C   0  0  0  0  0  0  0  0  0  0  0  0
    8.2860   -0.5150   -0.9159 H   0  0  0  0  0  0  0  0  0  0  0  0
    8.6077   -0.1967    0.8020 H   0  0  0  0  0  0  0  0  0  0  0  0
    8.3081   -1.8433    0.2635 H   0  0  0  0  0  0  0  0  0  0  0  0
    6.0244   -1.2315   -1.5889 H   0  0  0  0  0  0  0  0  0  0  0  0
    6.0241   -2.5224   -0.3781 H   0  0  0  0  0  0  0  0  0  0  0  0
    3.9960   -1.6374    0.6753 H   0  0  0  0  0  0  0  0  0  0  0  0
    3.7354   -1.8984   -1.0675 H   0  0  0  0  0  0  0  0  0  0  0  0
    2.8872    2.3961   -1.4167 H   0  0  0  0  0  0  0  0  0  0  0  0
    0.5155    3.0899   -1.5202 H   0  0  0  0  0  0  0  0  0  0  0  0
   -3.2838    2.2843   -0.6695 H   0  0  0  0  0  0  0  0  0  0  0  0
   -4.9545    2.4914   -0.9139 H   0  0  0  0  0  0  0  0  0  0  0  0
   -9.0849    1.3280    0.0359 H   0  0  0  0  0  0  0  0  0  0  0  0
   -9.4695   -1.0088    0.8109 H   0  0  0  0  0  0  0  0  0  0  0  0
   -7.5389   -2.5117    1.1608 H   0  0  0  0  0  0  0  0  0  0  0  0
   -5.1637   -2.8462    1.0827 H   0  0  0  0  0  0  0  0  0  0  0  0
   -1.1174   -1.5348    0.5399 H   0  0  0  0  0  0  0  0  0  0  0  0
    1.7365   -1.4013    0.3098 H   0  0  0  0  0  0  0  0  0  0  0  0
    4.4755    2.0835    0.2029 H   0  0  0  0  0  0  0  0  0  0  0  0
    4.4102    0.8265    1.4483 H   0  0  0  0  0  0  0  0  0  0  0  0
    6.4685    1.1367   -0.8087 H   0  0  0  0  0  0  0  0  0  0  0  0
    6.7349    1.4098    0.9188 H   0  0  0  0  0  0  0  0  0  0  0  0
  1  2  1  0
  2  3  1  0
  3  4  1  0
  4  5  1  0
  5  6  1  0
  6  7  2  0
  7  8  1  0
  8  9  2  0
  9 10  1  0
 10 11  2  0
 11 12  1  0
 12 13  2  0
 13 14  1  0
 13 15  1  0
 15 16  2  0
 16 17  1  0
 16 18  1  0
 18 19  2  0
 19 20  1  0
 20 21  2  0
 21 22  1  0
 22 23  1  0
 23 24  2  0
 11 25  1  0
 25 26  1  0
 26 27  2  0
  5 28  1  0
 28 29  1  0
 29  2  1  0
 27  6  1  0
 26  9  1  0
 23 12  1  0
 21 15  1  0
  1 30  1  0
  1 31  1  0
  1 32  1  0
  3 33  1  0
  3 34  1  0
  4 35  1  0
  4 36  1  0
  7 37  1  0
  8 38  1  0
 14 39  1  0
 14 40  1  0
 18 41  1  0
 19 42  1  0
 20 43  1  0
 22 44  1  0
 25 45  1  0
 27 46  1  0
 28 47  1  0
 28 48  1  0
 29 49  1  0
 29 50  1  0
M  END
$$$$
