
     RDKit          3D

 29 31  0  0  0  0  0  0  0  0999 V2000
   -2.3807    2.7069    0.3287 C   0  0  0  0  0  0  0  0  0  0  0  0
   -3.1580    1.5258    0.1682 O   0  0  0  0  0  0  0  0  0  0  0  0
   -2.4674    0.3467    0.0626 C   0  0  0  0  0  0  0  0  0  0  0  0
   -3.2851   -0.7991    0.0140 C   0  0  0  0  0  0  0  0  0  0  0  0
   -2.7337   -2.0757   -0.1014 C   0  0  0  0  0  0  0  0  0  0  0  0
   -1.3584   -2.1637   -0.1593 C   0  0  0  0  0  0  0  0  0  0  0  0
   -0.5200   -1.0428   -0.1008 C   0  0  0  0  0  0  0  0  0  0  0  0
   -1.0733    0.2229   -0.0059 C   0  0  0  0  0  0  0  0  0  0  0  0
    0.8497   -1.5621   -0.2014 C   0  0  0  0  0  0  0  0  0  0  0  0
    2.0786   -1.0222   -0.1864 C   0  0  0  0  0  0  0  0  0  0  0  0
    2.4803    0.3264   -0.0076 C   0  0  0  0  0  0  0  0  0  0  0  0
    3.6586    0.8754   -0.4585 C   0  0  0  0  0  0  0  0  0  0  0  0
    3.6453    2.1641   -0.0004 N   0  0  0  0  0  0  0  0  0  0  0  0
    2.4932    2.3321    0.7142 C   0  0  0  0  0  0  0  0  0  0  0  0
    1.7724    1.2336    0.7300 N   0  0  0  0  0  0  0  0  0  0  0  0
    0.7390   -3.0602   -0.3524 C   0  0  0  0  0  0  0  0  0  0  0  0
    1.6424   -3.8633   -0.4905 O   0  0  0  0  0  0  0  0  0  0  0  0
   -0.6159   -3.3312   -0.3013 N   0  0  0  0  0  0  0  0  0  0  0  0
   -1.7766    2.9042   -0.5630 H   0  0  0  0  0  0  0  0  0  0  0  0
   -1.7571    2.6535    1.2274 H   0  0  0  0  0  0  0  0  0  0  0  0
   -3.0718    3.5462    0.4535 H   0  0  0  0  0  0  0  0  0  0  0  0
   -4.3657   -0.6829    0.0640 H   0  0  0  0  0  0  0  0  0  0  0  0
   -3.3674   -2.9530   -0.1471 H   0  0  0  0  0  0  0  0  0  0  0  0
   -0.4296    1.0900    0.0058 H   0  0  0  0  0  0  0  0  0  0  0  0
    2.9099   -1.7132   -0.3288 H   0  0  0  0  0  0  0  0  0  0  0  0
    4.4789    0.4779   -1.0393 H   0  0  0  0  0  0  0  0  0  0  0  0
    4.3620    2.8623   -0.1446 H   0  0  0  0  0  0  0  0  0  0  0  0
    2.2401    3.2653    1.1994 H   0  0  0  0  0  0  0  0  0  0  0  0
   -0.9898   -4.2638   -0.3793 H   0  0  0  0  0  0  0  0  0  0  0  0
  1  2  1  0
  2  3  1  0
  3  4  1  0
  4  5  2  0
  5  6  1  0
  6  7  2  0
  7  8  1  0
  7  9  1  0
  9 10  2  3
 10 11  1  0
 11 12  2  0
 12 13  1  0
 13 14  1  0
 14 15  2  0
  9 16  1  0
 16 17  2  0
 16 18  1  0
  8  3  2  0
 15 11  1  0
 18  6  1  0
  1 19  1  0
  1 20  1  0
  1 21  1  0
  4 22  1  0
  5 23  1  0
  8 24  1  0
 10 25  1  0
 12 26  1  0
 13 27  1  0
 14 28  1  0
 18 29  1  0
M  END
$$$$
