
     RDKit          3D

 65 69  0  0  0  0  0  0  0  0999 V2000
   11.2202   -0.6203    0.3478 C   0  0  0  0  0  0  0  0  0  0  0  0
   10.1395    0.3285    0.4205 N   0  0  0  0  0  0  0  0  0  0  0  0
    9.7719    1.0690   -0.6850 C   0  0  0  0  0  0  0  0  0  0  0  0
   10.4189    1.0740   -1.7305 O   0  0  0  0  0  0  0  0  0  0  0  0
    8.5319    1.9383   -0.5135 C   0  0  0  0  0  0  0  0  0  0  0  0
    8.7637    3.0455    0.5106 C   0  0  0  0  0  0  0  0  0  0  0  0
    7.3601    1.1299   -0.1918 N   0  0  0  0  0  0  0  0  0  0  0  0
    6.2162    1.0193   -0.9344 C   0  0  0  0  0  0  0  0  0  0  0  0
    5.3630    0.2082   -0.2164 C   0  0  0  0  0  0  0  0  0  0  0  0
    4.0330   -0.1582   -0.6441 C   0  0  0  0  0  0  0  0  0  0  0  0
    3.7880   -0.6743   -1.9051 C   0  0  0  0  0  0  0  0  0  0  0  0
    2.5759   -1.0337   -2.3650 N   0  0  0  0  0  0  0  0  0  0  0  0
    1.4936   -0.9051   -1.5714 C   0  0  0  0  0  0  0  0  0  0  0  0
    0.2923   -1.2906   -2.1509 N   0  0  0  0  0  0  0  0  0  0  0  0
    1.6226   -0.3860   -0.2537 C   0  0  0  0  0  0  0  0  0  0  0  0
    0.6291   -0.1502    0.7821 C   0  0  0  0  0  0  0  0  0  0  0  0
   -0.7995   -0.4253    0.7359 C   0  0  0  0  0  0  0  0  0  0  0  0
   -1.2631   -1.7430    0.7537 C   0  0  0  0  0  0  0  0  0  0  0  0
   -2.6362   -2.0035    0.6987 C   0  0  0  0  0  0  0  0  0  0  0  0
   -3.5628   -0.9551    0.6222 C   0  0  0  0  0  0  0  0  0  0  0  0
   -4.9286   -1.3047    0.5773 N   0  0  0  0  0  0  0  0  0  0  0  0
   -6.0134   -0.4614    0.3740 C   0  0  0  0  0  0  0  0  0  0  0  0
   -5.9326    0.7311    0.1138 O   0  0  0  0  0  0  0  0  0  0  0  0
   -7.1996   -1.1698    0.5116 N   0  0  0  0  0  0  0  0  0  0  0  0
   -8.5117   -0.7017    0.2879 C   0  0  0  0  0  0  0  0  0  0  0  0
   -8.8146    0.5390   -0.2727 C   0  0  0  0  0  0  0  0  0  0  0  0
  -10.1457    0.9233   -0.4734 C   0  0  0  0  0  0  0  0  0  0  0  0
  -11.1958    0.0664   -0.1315 C   0  0  0  0  0  0  0  0  0  0  0  0
  -12.6204    0.4923   -0.3194 C   0  0  0  0  0  0  0  0  0  0  0  0
  -10.8947   -1.1733    0.4384 C   0  0  0  0  0  0  0  0  0  0  0  0
   -9.5642   -1.5559    0.6396 C   0  0  0  0  0  0  0  0  0  0  0  0
   -3.0923    0.3597    0.6122 C   0  0  0  0  0  0  0  0  0  0  0  0
   -1.7193    0.6248    0.6679 C   0  0  0  0  0  0  0  0  0  0  0  0
    1.1713    0.3953    1.9247 C   0  0  0  0  0  0  0  0  0  0  0  0
    2.8436    0.6344    1.7945 S   0  0  0  0  0  0  0  0  0  0  0  0
    2.9057   -0.0117    0.1885 C   0  0  0  0  0  0  0  0  0  0  0  0
    6.0992   -0.1367    0.9379 C   0  0  0  0  0  0  0  0  0  0  0  0
    7.3148    0.4188    0.9592 N   0  0  0  0  0  0  0  0  0  0  0  0
   12.0905   -0.1627   -0.1301 H   0  0  0  0  0  0  0  0  0  0  0  0
   10.8935   -1.4808   -0.2409 H   0  0  0  0  0  0  0  0  0  0  0  0
   11.4742   -0.9379    1.3615 H   0  0  0  0  0  0  0  0  0  0  0  0
    9.3826    0.1357    1.0809 H   0  0  0  0  0  0  0  0  0  0  0  0
    8.3261    2.4022   -1.4867 H   0  0  0  0  0  0  0  0  0  0  0  0
    8.9474    2.6474    1.5142 H   0  0  0  0  0  0  0  0  0  0  0  0
    7.8931    3.7063    0.5719 H   0  0  0  0  0  0  0  0  0  0  0  0
    9.6338    3.6505    0.2337 H   0  0  0  0  0  0  0  0  0  0  0  0
    6.1036    1.5321   -1.8803 H   0  0  0  0  0  0  0  0  0  0  0  0
    4.5979   -0.8276   -2.6145 H   0  0  0  0  0  0  0  0  0  0  0  0
   -0.5198   -0.7767   -1.8324 H   0  0  0  0  0  0  0  0  0  0  0  0
    0.4025   -1.3589   -3.1568 H   0  0  0  0  0  0  0  0  0  0  0  0
   -0.5614   -2.5735    0.7989 H   0  0  0  0  0  0  0  0  0  0  0  0
   -2.9658   -3.0393    0.7119 H   0  0  0  0  0  0  0  0  0  0  0  0
   -5.1295   -2.2930    0.5641 H   0  0  0  0  0  0  0  0  0  0  0  0
   -7.1276   -2.0772    0.9438 H   0  0  0  0  0  0  0  0  0  0  0  0
   -8.0377    1.2361   -0.5711 H   0  0  0  0  0  0  0  0  0  0  0  0
  -10.3499    1.9007   -0.9045 H   0  0  0  0  0  0  0  0  0  0  0  0
  -13.2518   -0.3656   -0.5758 H   0  0  0  0  0  0  0  0  0  0  0  0
  -12.9992    0.9497    0.5993 H   0  0  0  0  0  0  0  0  0  0  0  0
  -12.7084    1.2158   -1.1367 H   0  0  0  0  0  0  0  0  0  0  0  0
  -11.6938   -1.8516    0.7277 H   0  0  0  0  0  0  0  0  0  0  0  0
   -9.3689   -2.5299    1.0796 H   0  0  0  0  0  0  0  0  0  0  0  0
   -3.7688    1.2083    0.5638 H   0  0  0  0  0  0  0  0  0  0  0  0
   -1.3813    1.6594    0.6509 H   0  0  0  0  0  0  0  0  0  0  0  0
    0.6582    0.6649    2.8393 H   0  0  0  0  0  0  0  0  0  0  0  0
    5.8008   -0.7719    1.7628 H   0  0  0  0  0  0  0  0  0  0  0  0
  1  2  1  0
  2  3  1  0
  3  4  2  0
  3  5  1  0
  5  6  1  0
  5  7  1  0
  7  8  1  0
  8  9  2  0
  9 10  1  0
 10 11  1  0
 11 12  2  0
 12 13  1  0
 13 14  1  0
 13 15  2  0
 15 16  1  0
 16 17  1  0
 17 18  1  0
 18 19  2  0
 19 20  1  0
 20 21  1  0
 21 22  1  0
 22 23  2  0
 22 24  1  0
 24 25  1  0
 25 26  1  0
 26 27  2  0
 27 28  1  0
 28 29  1  0
 28 30  2  0
 30 31  1  0
 20 32  2  0
 32 33  1  0
 16 34  2  0
 34 35  1  0
 35 36  1  0
  9 37  1  0
 37 38  2  0
 38  7  1  0
 36 10  2  0
 36 15  1  0
 33 17  2  0
 31 25  2  0
  1 39  1  0
  1 40  1  0
  1 41  1  0
  2 42  1  0
  5 43  1  0
  6 44  1  0
  6 45  1  0
  6 46  1  0
  8 47  1  0
 11 48  1  0
 14 49  1  0
 14 50  1  0
 18 51  1  0
 19 52  1  0
 21 53  1  0
 24 54  1  0
 26 55  1  0
 27 56  1  0
 29 57  1  0
 29 58  1  0
 29 59  1  0
 30 60  1  0
 31 61  1  0
 32 62  1  0
 33 63  1  0
 34 64  1  0
 37 65  1  0
M  END
$$$$
