
     RDKit          3D

 59 62  0  0  0  0  0  0  0  0999 V2000
    1.0518    2.6020    2.8005 C   0  0  0  0  0  0  0  0  0  0  0  0
    1.1464    1.9011    1.4916 C   0  0  0  0  0  0  0  0  0  0  0  0
    2.3421    1.3542    1.0937 N   0  0  0  0  0  0  0  0  0  0  0  0
    2.2506    0.8244   -0.1674 C   0  0  0  0  0  0  0  0  0  0  0  0
    3.3661    0.2345   -0.8290 C   0  0  0  0  0  0  0  0  0  0  0  0
    4.6189    0.0304   -0.3879 C   0  0  0  0  0  0  0  0  0  0  0  0
    5.2723    0.3501    0.9369 C   0  0  0  0  0  0  0  0  0  0  0  0
    4.7822    0.8881    1.9118 O   0  0  0  0  0  0  0  0  0  0  0  0
    6.5786   -0.0951    0.8239 N   0  0  0  0  0  0  0  0  0  0  0  0
    6.8200   -0.6544   -0.4236 C   0  0  0  0  0  0  0  0  0  0  0  0
    8.0127   -1.1914   -0.8691 C   0  0  0  0  0  0  0  0  0  0  0  0
    8.0360   -1.7029   -2.1675 C   0  0  0  0  0  0  0  0  0  0  0  0
    6.8827   -1.6605   -2.9644 C   0  0  0  0  0  0  0  0  0  0  0  0
    6.9335   -2.1588   -4.2068 F   0  0  0  0  0  0  0  0  0  0  0  0
    5.6853   -1.1150   -2.5010 C   0  0  0  0  0  0  0  0  0  0  0  0
    5.6649   -0.6085   -1.2128 C   0  0  0  0  0  0  0  0  0  0  0  0
    0.9343    1.0083   -0.5811 C   0  0  0  0  0  0  0  0  0  0  0  0
    0.3314    0.5950   -1.8836 C   0  0  0  0  0  0  0  0  0  0  0  0
    0.2228    1.6826    0.4772 C   0  0  0  0  0  0  0  0  0  0  0  0
   -1.1883    2.0815    0.4505 C   0  0  0  0  0  0  0  0  0  0  0  0
   -1.7893    2.3210   -0.5937 O   0  0  0  0  0  0  0  0  0  0  0  0
   -1.8134    2.0893    1.6758 N   0  0  0  0  0  0  0  0  0  0  0  0
   -3.2429    2.2925    1.8128 C   0  0  0  0  0  0  0  0  0  0  0  0
   -4.0453    0.9824    1.8342 C   0  0  2  0  0  0  0  0  0  0  0  0
   -3.5843    0.1601    2.9196 O   0  0  0  0  0  0  0  0  0  0  0  0
   -3.9595    0.1763    0.5190 C   0  0  0  0  0  0  0  0  0  0  0  0
   -4.6804   -1.1169    0.6381 N   0  0  0  0  0  0  0  0  0  0  0  0
   -4.2505   -2.0596   -0.4249 C   0  0  0  0  0  0  0  0  0  0  0  0
   -4.7806   -1.7103   -1.8254 C   0  0  0  0  0  0  0  0  0  0  0  0
   -6.2111   -1.6309   -1.8290 O   0  0  0  0  0  0  0  0  0  0  0  0
   -6.6657   -0.6563   -0.8835 C   0  0  0  0  0  0  0  0  0  0  0  0
   -6.1523   -0.9649    0.5351 C   0  0  0  0  0  0  0  0  0  0  0  0
    0.6371    1.9340    3.5618 H   0  0  0  0  0  0  0  0  0  0  0  0
    2.0362    2.9364    3.1451 H   0  0  0  0  0  0  0  0  0  0  0  0
    0.4142    3.4882    2.7249 H   0  0  0  0  0  0  0  0  0  0  0  0
    3.1851    1.3710    1.6599 H   0  0  0  0  0  0  0  0  0  0  0  0
    3.1470   -0.0925   -1.8428 H   0  0  0  0  0  0  0  0  0  0  0  0
    7.2495   -0.0056    1.5719 H   0  0  0  0  0  0  0  0  0  0  0  0
    8.8978   -1.2183   -0.2438 H   0  0  0  0  0  0  0  0  0  0  0  0
    8.9448   -2.1380   -2.5738 H   0  0  0  0  0  0  0  0  0  0  0  0
    4.8173   -1.1009   -3.1483 H   0  0  0  0  0  0  0  0  0  0  0  0
    0.2147    1.4648   -2.5377 H   0  0  0  0  0  0  0  0  0  0  0  0
   -0.6521    0.1391   -1.7283 H   0  0  0  0  0  0  0  0  0  0  0  0
    0.9467   -0.1435   -2.4050 H   0  0  0  0  0  0  0  0  0  0  0  0
   -1.3504    1.6113    2.4379 H   0  0  0  0  0  0  0  0  0  0  0  0
   -3.6036    2.9492    1.0140 H   0  0  0  0  0  0  0  0  0  0  0  0
   -3.3741    2.8100    2.7694 H   0  0  0  0  0  0  0  0  0  0  0  0
   -5.0882    1.2379    2.0497 H   0  0  0  0  0  0  0  0  0  0  0  0
   -3.8984   -0.7395    2.6890 H   0  0  0  0  0  0  0  0  0  0  0  0
   -4.3064    0.7783   -0.3270 H   0  0  0  0  0  0  0  0  0  0  0  0
   -2.9035   -0.0608    0.3463 H   0  0  0  0  0  0  0  0  0  0  0  0
   -4.6281   -3.0530   -0.1492 H   0  0  0  0  0  0  0  0  0  0  0  0
   -3.1578   -2.1469   -0.4442 H   0  0  0  0  0  0  0  0  0  0  0  0
   -4.4943   -2.4954   -2.5326 H   0  0  0  0  0  0  0  0  0  0  0  0
   -4.3636   -0.7664   -2.1946 H   0  0  0  0  0  0  0  0  0  0  0  0
   -6.3604    0.3411   -1.2189 H   0  0  0  0  0  0  0  0  0  0  0  0
   -7.7603   -0.6809   -0.8892 H   0  0  0  0  0  0  0  0  0  0  0  0
   -6.5240   -0.2132    1.2384 H   0  0  0  0  0  0  0  0  0  0  0  0
   -6.5942   -1.9171    0.8572 H   0  0  0  0  0  0  0  0  0  0  0  0
  1  2  1  0
  2  3  1  0
  3  4  1  0
  4  5  1  0
  5  6  2  0
  6  7  1  0
  7  8  2  0
  7  9  1  0
  9 10  1  0
 10 11  1  0
 11 12  2  0
 12 13  1  0
 13 14  1  0
 13 15  2  0
 15 16  1  0
  4 17  2  0
 17 18  1  0
 17 19  1  0
 19 20  1  0
 20 21  2  0
 20 22  1  0
 22 23  1  0
 23 24  1  0
 24 25  1  0
 24 26  1  0
 26 27  1  0
 27 28  1  0
 28 29  1  0
 29 30  1  0
 30 31  1  0
 31 32  1  0
 19  2  2  0
 32 27  1  0
 16  6  1  0
 16 10  2  0
  1 33  1  0
  1 34  1  0
  1 35  1  0
  3 36  1  0
  5 37  1  0
  9 38  1  0
 11 39  1  0
 12 40  1  0
 15 41  1  0
 18 42  1  0
 18 43  1  0
 18 44  1  0
 22 45  1  0
 23 46  1  0
 23 47  1  0
 24 48  1  1
 25 49  1  0
 26 50  1  0
 26 51  1  0
 28 52  1  0
 28 53  1  0
 29 54  1  0
 29 55  1  0
 31 56  1  0
 31 57  1  0
 32 58  1  0
 32 59  1  0
M  END
$$$$
