
     RDKit          3D

 83 87  0  0  0  0  0  0  0  0999 V2000
    2.5030    2.6770   -3.7397 C   0  0  0  0  0  0  0  0  0  0  0  0
    3.2623    2.5527   -2.5454 O   0  0  0  0  0  0  0  0  0  0  0  0
    2.9093    1.5616   -1.6661 C   0  0  0  0  0  0  0  0  0  0  0  0
    1.7988    0.7309   -1.8125 C   0  0  0  0  0  0  0  0  0  0  0  0
    1.4932   -0.2638   -0.8496 C   0  0  0  0  0  0  0  0  0  0  0  0
    0.3852   -1.1356   -0.9172 C   0  0  0  0  0  0  0  0  0  0  0  0
   -0.5528   -0.9952   -1.9632 N   0  0  0  0  0  0  0  0  0  0  0  0
   -1.5204    0.0958   -1.7079 C   0  0  0  0  0  0  0  0  0  0  0  0
   -2.6839   -0.3376   -0.7981 C   0  0  0  0  0  0  0  0  0  0  0  0
   -3.3442   -1.5519   -1.2987 N   0  0  0  0  0  0  0  0  0  0  0  0
   -4.6622   -1.8927   -0.9856 C   0  0  0  0  0  0  0  0  0  0  0  0
   -5.0188   -3.0647   -0.8989 O   0  0  0  0  0  0  0  0  0  0  0  0
   -5.4975   -0.8063   -0.8463 N   0  0  0  0  0  0  0  0  0  0  0  0
   -6.8465   -0.8098   -0.4372 C   0  0  0  0  0  0  0  0  0  0  0  0
   -7.5743    0.3715   -0.6116 C   0  0  0  0  0  0  0  0  0  0  0  0
   -8.9181    0.4391   -0.2318 C   0  0  0  0  0  0  0  0  0  0  0  0
   -9.5581   -0.6692    0.3239 C   0  0  0  0  0  0  0  0  0  0  0  0
  -10.8717   -0.4688    0.6400 O   0  0  0  0  0  0  0  0  0  0  0  0
  -11.6985   -1.6107    0.8907 C   0  0  0  0  0  0  0  0  0  0  0  0
  -13.0859   -1.2782    0.3459 C   0  0  0  0  0  0  0  0  0  0  0  0
  -11.7725   -1.8678    2.3925 C   0  0  0  0  0  0  0  0  0  0  0  0
   -8.8278   -1.8373    0.5273 C   0  0  0  0  0  0  0  0  0  0  0  0
   -7.4793   -1.9063    0.1489 C   0  0  0  0  0  0  0  0  0  0  0  0
   -2.4145   -2.6648   -1.5271 C   0  0  0  0  0  0  0  0  0  0  0  0
   -1.2017   -2.2592   -2.3843 C   0  0  0  0  0  0  0  0  0  0  0  0
    0.1863   -2.0989   -0.0024 N   0  0  0  0  0  0  0  0  0  0  0  0
    1.0693   -2.1707    0.9984 C   0  0  0  0  0  0  0  0  0  0  0  0
    2.1304   -1.3777    1.1769 N   0  0  0  0  0  0  0  0  0  0  0  0
    2.3400   -0.4380    0.2506 C   0  0  0  0  0  0  0  0  0  0  0  0
    3.4435    0.3961    0.3872 C   0  0  0  0  0  0  0  0  0  0  0  0
    3.7392    1.3954   -0.5473 C   0  0  0  0  0  0  0  0  0  0  0  0
    4.8042    2.2555   -0.4570 O   0  0  0  0  0  0  0  0  0  0  0  0
    5.7521    2.0464    0.5916 C   0  0  0  0  0  0  0  0  0  0  0  0
    6.8468    3.0977    0.4273 C   0  0  0  0  0  0  0  0  0  0  0  0
    7.9027    3.0456    1.5344 C   0  0  0  0  0  0  0  0  0  0  0  0
    8.5763    1.7430    1.6812 N   0  0  0  0  0  0  0  0  0  0  0  0
    9.4050    1.4176    0.5071 C   0  0  0  0  0  0  0  0  0  0  0  0
   10.0884    0.0565    0.6602 C   0  0  0  0  0  0  0  0  0  0  0  0
   10.9163   -0.0110    1.9361 C   0  0  0  0  0  0  0  0  0  0  0  0
   10.0670    0.3893    3.1353 C   0  0  0  0  0  0  0  0  0  0  0  0
    9.3932    1.7424    2.9085 C   0  0  0  0  0  0  0  0  0  0  0  0
    1.4687    2.9612   -3.5196 H   0  0  0  0  0  0  0  0  0  0  0  0
    2.9477    3.4786   -4.3373 H   0  0  0  0  0  0  0  0  0  0  0  0
    2.5437    1.7577   -4.3334 H   0  0  0  0  0  0  0  0  0  0  0  0
    1.1464    0.8214   -2.6751 H   0  0  0  0  0  0  0  0  0  0  0  0
   -1.9300    0.4033   -2.6785 H   0  0  0  0  0  0  0  0  0  0  0  0
   -1.0358    0.9841   -1.2862 H   0  0  0  0  0  0  0  0  0  0  0  0
   -3.3866    0.4927   -0.6991 H   0  0  0  0  0  0  0  0  0  0  0  0
   -2.3230   -0.5630    0.2129 H   0  0  0  0  0  0  0  0  0  0  0  0
   -5.1853    0.0321   -1.3085 H   0  0  0  0  0  0  0  0  0  0  0  0
   -7.1142    1.2532   -1.0488 H   0  0  0  0  0  0  0  0  0  0  0  0
   -9.4735    1.3621   -0.3790 H   0  0  0  0  0  0  0  0  0  0  0  0
  -11.3454   -2.5010    0.3573 H   0  0  0  0  0  0  0  0  0  0  0  0
  -13.0319   -1.0760   -0.7289 H   0  0  0  0  0  0  0  0  0  0  0  0
  -13.4893   -0.3740    0.8152 H   0  0  0  0  0  0  0  0  0  0  0  0
  -13.7859   -2.1026    0.5096 H   0  0  0  0  0  0  0  0  0  0  0  0
  -10.7819   -2.0818    2.8061 H   0  0  0  0  0  0  0  0  0  0  0  0
  -12.4298   -2.7136    2.6177 H   0  0  0  0  0  0  0  0  0  0  0  0
  -12.1460   -0.9841    2.9223 H   0  0  0  0  0  0  0  0  0  0  0  0
   -9.2658   -2.7159    0.9876 H   0  0  0  0  0  0  0  0  0  0  0  0
   -6.9470   -2.8350    0.3324 H   0  0  0  0  0  0  0  0  0  0  0  0
   -2.9376   -3.4877   -2.0281 H   0  0  0  0  0  0  0  0  0  0  0  0
   -2.1065   -3.0371   -0.5442 H   0  0  0  0  0  0  0  0  0  0  0  0
   -0.4754   -3.0799   -2.4364 H   0  0  0  0  0  0  0  0  0  0  0  0
   -1.5519   -2.1039   -3.4131 H   0  0  0  0  0  0  0  0  0  0  0  0
    0.9067   -2.9447    1.7408 H   0  0  0  0  0  0  0  0  0  0  0  0
    4.0739    0.2388    1.2573 H   0  0  0  0  0  0  0  0  0  0  0  0
    5.2665    2.1737    1.5663 H   0  0  0  0  0  0  0  0  0  0  0  0
    6.1785    1.0402    0.5091 H   0  0  0  0  0  0  0  0  0  0  0  0
    6.3843    4.0935    0.4296 H   0  0  0  0  0  0  0  0  0  0  0  0
    7.3053    3.0040   -0.5641 H   0  0  0  0  0  0  0  0  0  0  0  0
    8.6390    3.8419    1.3641 H   0  0  0  0  0  0  0  0  0  0  0  0
    7.3918    3.2901    2.4753 H   0  0  0  0  0  0  0  0  0  0  0  0
   10.1632    2.1936    0.3408 H   0  0  0  0  0  0  0  0  0  0  0  0
    8.7865    1.3672   -0.3950 H   0  0  0  0  0  0  0  0  0  0  0  0
    9.3288   -0.7353    0.6746 H   0  0  0  0  0  0  0  0  0  0  0  0
   10.7310   -0.1332   -0.2068 H   0  0  0  0  0  0  0  0  0  0  0  0
   11.7753    0.6651    1.8513 H   0  0  0  0  0  0  0  0  0  0  0  0
   11.3143   -1.0217    2.0764 H   0  0  0  0  0  0  0  0  0  0  0  0
   10.6930    0.4334    4.0338 H   0  0  0  0  0  0  0  0  0  0  0  0
    9.3021   -0.3772    3.3158 H   0  0  0  0  0  0  0  0  0  0  0  0
    8.7563    1.9503    3.7770 H   0  0  0  0  0  0  0  0  0  0  0  0
   10.1553    2.5315    2.8658 H   0  0  0  0  0  0  0  0  0  0  0  0
  1  2  1  0
  2  3  1  0
  3  4  2  0
  4  5  1  0
  5  6  2  0
  6  7  1  0
  7  8  1  0
  8  9  1  0
  9 10  1  0
 10 11  1  0
 11 12  2  0
 11 13  1  0
 13 14  1  0
 14 15  1  0
 15 16  2  0
 16 17  1  0
 17 18  1  0
 18 19  1  0
 19 20  1  0
 19 21  1  0
 17 22  2  0
 22 23  1  0
 10 24  1  0
 24 25  1  0
  6 26  1  0
 26 27  2  0
 27 28  1  0
 28 29  2  0
 29 30  1  0
 30 31  2  0
 31 32  1  0
 32 33  1  0
 33 34  1  0
 34 35  1  0
 35 36  1  0
 36 37  1  0
 37 38  1  0
 38 39  1  0
 39 40  1  0
 40 41  1  0
 31  3  1  0
 41 36  1  0
 29  5  1  0
 25  7  1  0
 23 14  2  0
  1 42  1  0
  1 43  1  0
  1 44  1  0
  4 45  1  0
  8 46  1  0
  8 47  1  0
  9 48  1  0
  9 49  1  0
 13 50  1  0
 15 51  1  0
 16 52  1  0
 19 53  1  0
 20 54  1  0
 20 55  1  0
 20 56  1  0
 21 57  1  0
 21 58  1  0
 21 59  1  0
 22 60  1  0
 23 61  1  0
 24 62  1  0
 24 63  1  0
 25 64  1  0
 25 65  1  0
 27 66  1  0
 30 67  1  0
 33 68  1  0
 33 69  1  0
 34 70  1  0
 34 71  1  0
 35 72  1  0
 35 73  1  0
 37 74  1  0
 37 75  1  0
 38 76  1  0
 38 77  1  0
 39 78  1  0
 39 79  1  0
 40 80  1  0
 40 81  1  0
 41 82  1  0
 41 83  1  0
M  END
$$$$
