
     RDKit          3D

 82 86  0  0  0  0  0  0  0  0999 V2000
   -0.7430    0.1278    3.0144 C   0  0  0  0  0  0  0  0  0  0  0  0
   -0.9077    0.8816    1.8148 O   0  0  0  0  0  0  0  0  0  0  0  0
   -0.1310    0.4057    0.7806 C   0  0  0  0  0  0  0  0  0  0  0  0
    1.2562    0.2551    0.9162 C   0  0  0  0  0  0  0  0  0  0  0  0
    2.0450   -0.1849   -0.1554 C   0  0  0  0  0  0  0  0  0  0  0  0
    3.4419   -0.3572   -0.0776 N   0  0  0  0  0  0  0  0  0  0  0  0
    4.1776    0.5061   -1.0174 C   0  0  0  0  0  0  0  0  0  0  0  0
    5.6407    0.0729   -1.1114 C   0  0  0  0  0  0  0  0  0  0  0  0
    6.3230    0.0537    0.2727 C   0  0  0  0  0  0  0  0  0  0  0  0
    7.7520   -0.3770    0.2198 N   0  0  0  0  0  0  0  0  0  0  0  0
    8.4114   -0.2238    1.5420 C   0  0  0  0  0  0  0  0  0  0  0  0
    9.9240   -0.5455    1.5313 C   0  0  0  0  0  0  0  0  0  0  0  0
   10.6546    0.2720    0.5493 N   0  0  0  0  0  0  0  0  0  0  0  0
   12.0736   -0.0727    0.5368 C   0  0  0  0  0  0  0  0  0  0  0  0
   10.0503    0.0576   -0.7761 C   0  0  0  0  0  0  0  0  0  0  0  0
    8.5374    0.3833   -0.7830 C   0  0  0  0  0  0  0  0  0  0  0  0
    5.4910   -0.8669    1.1884 C   0  0  0  0  0  0  0  0  0  0  0  0
    4.0359   -0.4110    1.2628 C   0  0  0  0  0  0  0  0  0  0  0  0
    1.3770   -0.4832   -1.3545 C   0  0  0  0  0  0  0  0  0  0  0  0
   -0.0080   -0.3149   -1.4977 C   0  0  0  0  0  0  0  0  0  0  0  0
   -0.7858    0.1477   -0.4387 C   0  0  0  0  0  0  0  0  0  0  0  0
   -2.1704    0.3447   -0.5056 N   0  0  0  0  0  0  0  0  0  0  0  0
   -3.1479    0.1115   -1.4574 C   0  0  0  0  0  0  0  0  0  0  0  0
   -2.8607   -0.4123   -2.6565 N   0  0  0  0  0  0  0  0  0  0  0  0
   -3.8939   -0.6218   -3.4955 C   0  0  0  0  0  0  0  0  0  0  0  0
   -5.1991   -0.3289   -3.1857 C   0  0  0  0  0  0  0  0  0  0  0  0
   -6.4550   -0.6515   -4.3144 Cl  0  0  0  0  0  0  0  0  0  0  0  0
   -5.4197    0.2317   -1.9360 C   0  0  0  0  0  0  0  0  0  0  0  0
   -6.7424    0.5157   -1.5236 N   0  0  0  0  0  0  0  0  0  0  0  0
   -7.2485    1.2630   -0.4396 C   0  0  0  0  0  0  0  0  0  0  0  0
   -6.4439    2.1352    0.3099 C   0  0  0  0  0  0  0  0  0  0  0  0
   -6.9537    2.8587    1.3950 C   0  0  0  0  0  0  0  0  0  0  0  0
   -8.2854    2.7175    1.7677 C   0  0  0  0  0  0  0  0  0  0  0  0
   -9.1072    1.8447    1.0627 C   0  0  0  0  0  0  0  0  0  0  0  0
   -8.5845    1.1110   -0.0147 C   0  0  0  0  0  0  0  0  0  0  0  0
   -9.6685   -0.0279   -0.8549 S   0  0  0  0  0  0  0  0  0  0  0  0
  -11.0178    0.2052   -0.3748 O   0  0  0  0  0  0  0  0  0  0  0  0
   -9.3656    0.0997   -2.2703 O   0  0  0  0  0  0  0  0  0  0  0  0
   -9.1404   -1.6593   -0.3111 C   0  0  0  0  0  0  0  0  0  0  0  0
   -9.2225   -1.8164    1.2037 C   0  0  0  0  0  0  0  0  0  0  0  0
   -9.9798   -2.7279   -1.0087 C   0  0  0  0  0  0  0  0  0  0  0  0
   -4.3962    0.4295   -1.0771 N   0  0  0  0  0  0  0  0  0  0  0  0
   -0.7905   -0.9484    2.8249 H   0  0  0  0  0  0  0  0  0  0  0  0
   -1.5675    0.3884    3.6824 H   0  0  0  0  0  0  0  0  0  0  0  0
    0.1896    0.3915    3.5222 H   0  0  0  0  0  0  0  0  0  0  0  0
    1.7136    0.5271    1.8593 H   0  0  0  0  0  0  0  0  0  0  0  0
    3.7579    0.4658   -2.0295 H   0  0  0  0  0  0  0  0  0  0  0  0
    4.1199    1.5509   -0.6852 H   0  0  0  0  0  0  0  0  0  0  0  0
    6.1388    0.7764   -1.7868 H   0  0  0  0  0  0  0  0  0  0  0  0
    5.7019   -0.9223   -1.5709 H   0  0  0  0  0  0  0  0  0  0  0  0
    6.2824    1.0752    0.6770 H   0  0  0  0  0  0  0  0  0  0  0  0
    7.9576   -0.9038    2.2676 H   0  0  0  0  0  0  0  0  0  0  0  0
    8.2735    0.7997    1.9147 H   0  0  0  0  0  0  0  0  0  0  0  0
   10.3191   -0.3490    2.5341 H   0  0  0  0  0  0  0  0  0  0  0  0
   10.0626   -1.6159    1.3301 H   0  0  0  0  0  0  0  0  0  0  0  0
   12.2466   -1.1200    0.2704 H   0  0  0  0  0  0  0  0  0  0  0  0
   12.6139    0.5575   -0.1768 H   0  0  0  0  0  0  0  0  0  0  0  0
   12.5201    0.1111    1.5200 H   0  0  0  0  0  0  0  0  0  0  0  0
   10.5408    0.7080   -1.5111 H   0  0  0  0  0  0  0  0  0  0  0  0
   10.1968   -0.9798   -1.1054 H   0  0  0  0  0  0  0  0  0  0  0  0
    8.4052    1.4636   -0.6294 H   0  0  0  0  0  0  0  0  0  0  0  0
    8.1806    0.1426   -1.7906 H   0  0  0  0  0  0  0  0  0  0  0  0
    5.5345   -1.8982    0.8164 H   0  0  0  0  0  0  0  0  0  0  0  0
    5.8789   -0.8756    2.2114 H   0  0  0  0  0  0  0  0  0  0  0  0
    3.9924    0.5736    1.7462 H   0  0  0  0  0  0  0  0  0  0  0  0
    3.4909   -1.1258    1.8931 H   0  0  0  0  0  0  0  0  0  0  0  0
    1.9374   -0.8723   -2.2032 H   0  0  0  0  0  0  0  0  0  0  0  0
   -0.4546   -0.5534   -2.4589 H   0  0  0  0  0  0  0  0  0  0  0  0
   -2.5762    0.7209    0.3424 H   0  0  0  0  0  0  0  0  0  0  0  0
   -3.6220   -1.0553   -4.4537 H   0  0  0  0  0  0  0  0  0  0  0  0
   -7.4190    0.4165   -2.2875 H   0  0  0  0  0  0  0  0  0  0  0  0
   -5.4043    2.2995    0.0432 H   0  0  0  0  0  0  0  0  0  0  0  0
   -6.3043    3.5407    1.9420 H   0  0  0  0  0  0  0  0  0  0  0  0
   -8.6816    3.2871    2.6047 H   0  0  0  0  0  0  0  0  0  0  0  0
  -10.1475    1.7384    1.3618 H   0  0  0  0  0  0  0  0  0  0  0  0
   -8.0980   -1.7713   -0.6310 H   0  0  0  0  0  0  0  0  0  0  0  0
   -8.5614   -1.1085    1.7170 H   0  0  0  0  0  0  0  0  0  0  0  0
  -10.2428   -1.6500    1.5756 H   0  0  0  0  0  0  0  0  0  0  0  0
   -8.9160   -2.8252    1.5039 H   0  0  0  0  0  0  0  0  0  0  0  0
   -9.6372   -3.7300   -0.7366 H   0  0  0  0  0  0  0  0  0  0  0  0
  -11.0371   -2.6417   -0.7376 H   0  0  0  0  0  0  0  0  0  0  0  0
   -9.9071   -2.6327   -2.0965 H   0  0  0  0  0  0  0  0  0  0  0  0
  1  2  1  0
  2  3  1  0
  3  4  1  0
  4  5  2  0
  5  6  1  0
  6  7  1  0
  7  8  1  0
  8  9  1  0
  9 10  1  0
 10 11  1  0
 11 12  1  0
 12 13  1  0
 13 14  1  0
 13 15  1  0
 15 16  1  0
  9 17  1  0
 17 18  1  0
  5 19  1  0
 19 20  2  0
 20 21  1  0
 21 22  1  0
 22 23  1  0
 23 24  2  0
 24 25  1  0
 25 26  2  0
 26 27  1  0
 26 28  1  0
 28 29  1  0
 29 30  1  0
 30 31  2  0
 31 32  1  0
 32 33  2  0
 33 34  1  0
 34 35  2  0
 35 36  1  0
 36 37  2  0
 36 38  2  0
 36 39  1  0
 39 40  1  0
 39 41  1  0
 28 42  2  0
 21  3  2  0
 42 23  1  0
 18  6  1  0
 35 30  1  0
 16 10  1  0
  1 43  1  0
  1 44  1  0
  1 45  1  0
  4 46  1  0
  7 47  1  0
  7 48  1  0
  8 49  1  0
  8 50  1  0
  9 51  1  0
 11 52  1  0
 11 53  1  0
 12 54  1  0
 12 55  1  0
 14 56  1  0
 14 57  1  0
 14 58  1  0
 15 59  1  0
 15 60  1  0
 16 61  1  0
 16 62  1  0
 17 63  1  0
 17 64  1  0
 18 65  1  0
 18 66  1  0
 19 67  1  0
 20 68  1  0
 22 69  1  0
 25 70  1  0
 29 71  1  0
 31 72  1  0
 32 73  1  0
 33 74  1  0
 34 75  1  0
 39 76  1  0
 40 77  1  0
 40 78  1  0
 40 79  1  0
 41 80  1  0
 41 81  1  0
 41 82  1  0
M  END
$$$$
