
     RDKit          3D

 50 52  0  0  0  0  0  0  0  0999 V2000
   -5.4368   -2.1791   -0.1941 C   0  0  0  0  0  0  0  0  0  0  0  0
   -4.4040   -1.2200   -0.8208 C   0  0  0  0  0  0  0  0  0  0  0  0
   -3.6205   -1.9824   -1.9035 C   0  0  0  0  0  0  0  0  0  0  0  0
   -5.1607   -0.0472   -1.4714 C   0  0  0  0  0  0  0  0  0  0  0  0
   -3.4680   -0.7100    0.3042 C   0  0  0  0  0  0  0  0  0  0  0  0
   -2.3022    0.1767   -0.1422 C   0  0  0  0  0  0  0  0  0  0  0  0
   -1.6230    0.6259    1.0449 O   0  0  0  0  0  0  0  0  0  0  0  0
   -0.4162    1.1992    0.6977 C   0  0  0  0  0  0  0  0  0  0  0  0
    0.7389    0.4114    0.8150 C   0  0  0  0  0  0  0  0  0  0  0  0
    2.0090    0.9191    0.4953 C   0  0  0  0  0  0  0  0  0  0  0  0
    3.2083    0.0725    0.6239 C   0  0  0  0  0  0  0  0  0  0  0  0
    4.0846   -0.1140   -0.4612 C   0  0  0  0  0  0  0  0  0  0  0  0
    5.2305   -0.9101   -0.3403 C   0  0  0  0  0  0  0  0  0  0  0  0
    5.5191   -1.5384    0.8757 C   0  0  0  0  0  0  0  0  0  0  0  0
    6.7271   -2.3846    1.0626 C   0  0  0  0  0  0  0  0  0  0  0  0
    7.2861   -2.9417   -0.0545 N   0  0  0  0  0  0  0  0  0  0  0  0
    7.1900   -2.6081    2.1735 O   0  0  0  0  0  0  0  0  0  0  0  0
    4.6599   -1.3564    1.9661 C   0  0  0  0  0  0  0  0  0  0  0  0
    3.5140   -0.5645    1.8375 C   0  0  0  0  0  0  0  0  0  0  0  0
    2.1225    2.2549    0.0561 C   0  0  0  0  0  0  0  0  0  0  0  0
    0.9582    3.0321   -0.0187 C   0  0  0  0  0  0  0  0  0  0  0  0
    0.7553    4.3373   -0.3784 N   0  0  0  0  0  0  0  0  0  0  0  0
   -0.5206    4.7452   -0.2837 N   0  0  0  0  0  0  0  0  0  0  0  0
   -1.1679    3.6620    0.1342 C   0  0  0  0  0  0  0  0  0  0  0  0
   -2.4857    3.6580    0.3942 N   0  0  0  0  0  0  0  0  0  0  0  0
   -0.3054    2.5447    0.3015 C   0  0  0  0  0  0  0  0  0  0  0  0
   -4.9487   -3.0545    0.2530 H   0  0  0  0  0  0  0  0  0  0  0  0
   -6.1468   -2.5452   -0.9452 H   0  0  0  0  0  0  0  0  0  0  0  0
   -6.0147   -1.6791    0.5912 H   0  0  0  0  0  0  0  0  0  0  0  0
   -3.0381   -2.8037   -1.4690 H   0  0  0  0  0  0  0  0  0  0  0  0
   -4.3020   -2.4146   -2.6470 H   0  0  0  0  0  0  0  0  0  0  0  0
   -2.9301   -1.3236   -2.4446 H   0  0  0  0  0  0  0  0  0  0  0  0
   -4.4818    0.6253   -2.0096 H   0  0  0  0  0  0  0  0  0  0  0  0
   -5.6948    0.5460   -0.7178 H   0  0  0  0  0  0  0  0  0  0  0  0
   -5.9023   -0.4092   -2.1944 H   0  0  0  0  0  0  0  0  0  0  0  0
   -4.0595   -0.1612    1.0517 H   0  0  0  0  0  0  0  0  0  0  0  0
   -3.0483   -1.5676    0.8507 H   0  0  0  0  0  0  0  0  0  0  0  0
   -1.6150   -0.3988   -0.7757 H   0  0  0  0  0  0  0  0  0  0  0  0
   -2.6664    1.0457   -0.7003 H   0  0  0  0  0  0  0  0  0  0  0  0
    0.6311   -0.6183    1.1509 H   0  0  0  0  0  0  0  0  0  0  0  0
    3.8750    0.3612   -1.4181 H   0  0  0  0  0  0  0  0  0  0  0  0
    5.8944   -1.0041   -1.1953 H   0  0  0  0  0  0  0  0  0  0  0  0
    6.7736   -3.0307   -0.9195 H   0  0  0  0  0  0  0  0  0  0  0  0
    8.0224   -3.6141    0.1173 H   0  0  0  0  0  0  0  0  0  0  0  0
    4.8834   -1.8259    2.9232 H   0  0  0  0  0  0  0  0  0  0  0  0
    2.8665   -0.4360    2.7023 H   0  0  0  0  0  0  0  0  0  0  0  0
    3.0906    2.6822   -0.1903 H   0  0  0  0  0  0  0  0  0  0  0  0
    1.4502    5.0113   -0.6799 H   0  0  0  0  0  0  0  0  0  0  0  0
   -2.8357    2.9589    1.0432 H   0  0  0  0  0  0  0  0  0  0  0  0
   -2.8956    4.5736    0.5391 H   0  0  0  0  0  0  0  0  0  0  0  0
  1  2  1  0
  2  3  1  0
  2  4  1  0
  2  5  1  0
  5  6  1  0
  6  7  1  0
  7  8  1  0
  8  9  1  0
  9 10  2  0
 10 11  1  0
 11 12  1  0
 12 13  2  0
 13 14  1  0
 14 15  1  0
 15 16  1  0
 15 17  2  0
 14 18  2  0
 18 19  1  0
 10 20  1  0
 20 21  2  0
 21 22  1  0
 22 23  1  0
 23 24  2  0
 24 25  1  0
 24 26  1  0
 26  8  2  0
 19 11  2  0
 26 21  1  0
  1 27  1  0
  1 28  1  0
  1 29  1  0
  3 30  1  0
  3 31  1  0
  3 32  1  0
  4 33  1  0
  4 34  1  0
  4 35  1  0
  5 36  1  0
  5 37  1  0
  6 38  1  0
  6 39  1  0
  9 40  1  0
 12 41  1  0
 13 42  1  0
 16 43  1  0
 16 44  1  0
 18 45  1  0
 19 46  1  0
 20 47  1  0
 22 48  1  0
 25 49  1  0
 25 50  1  0
M  END
$$$$
