
     RDKit          3D

 37 39  0  0  0  0  0  0  0  0999 V2000
    6.1062    1.1344   -0.9243 C   0  0  0  0  0  0  0  0  0  0  0  0
    4.9259    0.6230   -0.1564 C   0  0  0  0  0  0  0  0  0  0  0  0
    5.0782    0.1000    1.1238 C   0  0  0  0  0  0  0  0  0  0  0  0
    3.9576   -0.3962    1.7651 C   0  0  0  0  0  0  0  0  0  0  0  0
    2.7202   -0.4113    1.2225 N   0  0  0  0  0  0  0  0  0  0  0  0
    2.5632    0.0979   -0.0174 C   0  0  0  0  0  0  0  0  0  0  0  0
    1.3079    0.0917   -0.6529 N   0  0  0  0  0  0  0  0  0  0  0  0
    0.0918   -0.4211   -0.1906 C   0  0  0  0  0  0  0  0  0  0  0  0
    0.0062   -1.5601    0.5819 C   0  0  0  0  0  0  0  0  0  0  0  0
   -1.2550   -1.9808    0.9470 C   0  0  0  0  0  0  0  0  0  0  0  0
   -1.4259   -3.2038    1.7955 C   0  0  0  0  0  0  0  0  0  0  0  0
   -2.3688   -1.3309    0.5626 N   0  0  0  0  0  0  0  0  0  0  0  0
   -2.2021   -0.2380   -0.2059 C   0  0  0  0  0  0  0  0  0  0  0  0
   -3.4137    0.4866   -0.6457 C   0  0  0  0  0  0  0  0  0  0  0  0
   -4.7034    0.0577   -0.2742 C   0  0  0  0  0  0  0  0  0  0  0  0
   -5.8518    0.7408   -0.6886 C   0  0  0  0  0  0  0  0  0  0  0  0
   -5.7377    1.8740   -1.4877 C   0  0  0  0  0  0  0  0  0  0  0  0
   -4.4783    2.3234   -1.8718 C   0  0  0  0  0  0  0  0  0  0  0  0
   -3.3325    1.6371   -1.4550 C   0  0  0  0  0  0  0  0  0  0  0  0
   -1.0055    0.2371   -0.6044 N   0  0  0  0  0  0  0  0  0  0  0  0
    3.6516    0.6034   -0.7333 C   0  0  0  0  0  0  0  0  0  0  0  0
    6.5478    0.3259   -1.5150 H   0  0  0  0  0  0  0  0  0  0  0  0
    6.8689    1.5353   -0.2484 H   0  0  0  0  0  0  0  0  0  0  0  0
    5.8111    1.9455   -1.5983 H   0  0  0  0  0  0  0  0  0  0  0  0
    6.0447    0.0726    1.6156 H   0  0  0  0  0  0  0  0  0  0  0  0
    4.0264   -0.8131    2.7658 H   0  0  0  0  0  0  0  0  0  0  0  0
    1.1105    0.9624   -1.1307 H   0  0  0  0  0  0  0  0  0  0  0  0
    0.8890   -2.1054    0.8885 H   0  0  0  0  0  0  0  0  0  0  0  0
   -1.0164   -4.0801    1.2834 H   0  0  0  0  0  0  0  0  0  0  0  0
   -0.9131   -3.0746    2.7537 H   0  0  0  0  0  0  0  0  0  0  0  0
   -2.4850   -3.3922    1.9990 H   0  0  0  0  0  0  0  0  0  0  0  0
   -4.8215   -0.8262    0.3512 H   0  0  0  0  0  0  0  0  0  0  0  0
   -6.8322    0.3839   -0.3844 H   0  0  0  0  0  0  0  0  0  0  0  0
   -6.6288    2.4057   -1.8103 H   0  0  0  0  0  0  0  0  0  0  0  0
   -4.3821    3.2080   -2.4957 H   0  0  0  0  0  0  0  0  0  0  0  0
   -2.3599    2.0112   -1.7702 H   0  0  0  0  0  0  0  0  0  0  0  0
    3.5066    0.9762   -1.7431 H   0  0  0  0  0  0  0  0  0  0  0  0
  1  2  1  0
  2  3  2  0
  3  4  1  0
  4  5  2  0
  5  6  1  0
  6  7  1  0
  7  8  1  0
  8  9  2  0
  9 10  1  0
 10 11  1  0
 10 12  2  0
 12 13  1  0
 13 14  1  0
 14 15  2  0
 15 16  1  0
 16 17  2  0
 17 18  1  0
 18 19  2  0
 13 20  2  0
  6 21  2  0
 21  2  1  0
 20  8  1  0
 19 14  1  0
  1 22  1  0
  1 23  1  0
  1 24  1  0
  3 25  1  0
  4 26  1  0
  7 27  1  0
  9 28  1  0
 11 29  1  0
 11 30  1  0
 11 31  1  0
 15 32  1  0
 16 33  1  0
 17 34  1  0
 18 35  1  0
 19 36  1  0
 21 37  1  0
M  END
$$$$
