
     RDKit          3D

 52 55  0  0  0  0  0  0  0  0999 V2000
    4.8357   -1.6784   -2.0579 C   0  0  0  0  0  0  0  0  0  0  0  0
    3.8248   -1.0361   -1.1008 C   0  0  1  0  0  0  0  0  0  0  0  0
    3.5039   -1.9907   -0.0734 O   0  0  0  0  0  0  0  0  0  0  0  0
    2.3912   -1.7288    0.6903 C   0  0  0  0  0  0  0  0  0  0  0  0
    1.1837   -1.2516    0.1768 C   0  0  0  0  0  0  0  0  0  0  0  0
    0.0958   -1.0429    1.0297 C   0  0  0  0  0  0  0  0  0  0  0  0
   -1.1576   -0.5187    0.5228 C   0  0  0  0  0  0  0  0  0  0  0  0
   -1.4267    0.3290   -0.5759 C   0  0  0  0  0  0  0  0  0  0  0  0
   -2.7286    0.5794   -0.7289 N   0  0  0  0  0  0  0  0  0  0  0  0
   -3.3109   -0.1151    0.2661 N   0  0  0  0  0  0  0  0  0  0  0  0
   -4.7627   -0.1159    0.4413 C   0  0  0  0  0  0  0  0  0  0  0  0
   -5.5156   -0.6021   -0.8041 C   0  0  0  0  0  0  0  0  0  0  0  0
   -5.7380    0.5029   -1.8334 C   0  0  0  0  0  0  0  0  0  0  0  0
   -6.3661    1.6744   -1.2205 N   0  0  0  0  0  0  0  0  0  0  0  0
   -5.5042    2.2383   -0.1811 C   0  0  0  0  0  0  0  0  0  0  0  0
   -5.2867    1.2340    0.9459 C   0  0  0  0  0  0  0  0  0  0  0  0
   -2.4059   -0.7892    1.0446 C   0  0  0  0  0  0  0  0  0  0  0  0
    0.2758   -1.3543    2.3736 C   0  0  0  0  0  0  0  0  0  0  0  0
    1.4209   -1.8498    2.9002 N   0  0  0  0  0  0  0  0  0  0  0  0
    2.4528   -2.0381    2.0569 C   0  0  0  0  0  0  0  0  0  0  0  0
    3.6328   -2.4879    2.6436 N   0  0  0  0  0  0  0  0  0  0  0  0
    4.3282    0.2889   -0.5351 C   0  0  0  0  0  0  0  0  0  0  0  0
    3.7267    1.5093   -0.9252 C   0  0  0  0  0  0  0  0  0  0  0  0
    2.4369    1.5927   -2.0803 Cl  0  0  0  0  0  0  0  0  0  0  0  0
    4.1530    2.7391   -0.4020 C   0  0  0  0  0  0  0  0  0  0  0  0
    5.1925    2.7867    0.5183 C   0  0  0  0  0  0  0  0  0  0  0  0
    5.8064    1.6048    0.9064 C   0  0  0  0  0  0  0  0  0  0  0  0
    6.8204    1.6802    1.7827 F   0  0  0  0  0  0  0  0  0  0  0  0
    5.3934    0.3662    0.3937 C   0  0  0  0  0  0  0  0  0  0  0  0
    6.2686   -1.0240    0.9435 Cl  0  0  0  0  0  0  0  0  0  0  0  0
    5.7487   -2.0101   -1.5565 H   0  0  0  0  0  0  0  0  0  0  0  0
    5.1150   -0.9890   -2.8619 H   0  0  0  0  0  0  0  0  0  0  0  0
    4.3996   -2.5777   -2.5096 H   0  0  0  0  0  0  0  0  0  0  0  0
    2.9395   -0.8960   -1.7229 H   0  0  0  0  0  0  0  0  0  0  0  0
    1.0636   -1.0711   -0.8852 H   0  0  0  0  0  0  0  0  0  0  0  0
   -0.7278    0.7804   -1.2702 H   0  0  0  0  0  0  0  0  0  0  0  0
   -4.9432   -0.8543    1.2356 H   0  0  0  0  0  0  0  0  0  0  0  0
   -4.9938   -1.4452   -1.2734 H   0  0  0  0  0  0  0  0  0  0  0  0
   -6.4973   -0.9809   -0.4873 H   0  0  0  0  0  0  0  0  0  0  0  0
   -6.4020    0.1221   -2.6174 H   0  0  0  0  0  0  0  0  0  0  0  0
   -4.8039    0.7844   -2.3317 H   0  0  0  0  0  0  0  0  0  0  0  0
   -6.5070    2.3808   -1.9442 H   0  0  0  0  0  0  0  0  0  0  0  0
   -4.5531    2.5759   -0.6069 H   0  0  0  0  0  0  0  0  0  0  0  0
   -5.9927    3.1279    0.2307 H   0  0  0  0  0  0  0  0  0  0  0  0
   -4.6112    1.6620    1.6969 H   0  0  0  0  0  0  0  0  0  0  0  0
   -6.2481    1.0648    1.4508 H   0  0  0  0  0  0  0  0  0  0  0  0
   -2.7306   -1.4022    1.8744 H   0  0  0  0  0  0  0  0  0  0  0  0
   -0.5156   -1.2051    3.1032 H   0  0  0  0  0  0  0  0  0  0  0  0
    4.0745   -3.2117    2.0885 H   0  0  0  0  0  0  0  0  0  0  0  0
    3.4375   -2.7550    3.6025 H   0  0  0  0  0  0  0  0  0  0  0  0
    3.6750    3.6664   -0.7131 H   0  0  0  0  0  0  0  0  0  0  0  0
    5.5322    3.7314    0.9314 H   0  0  0  0  0  0  0  0  0  0  0  0
  1  2  1  0
  2  3  1  0
  3  4  1  0
  4  5  1  0
  5  6  2  0
  6  7  1  0
  7  8  1  0
  8  9  2  0
  9 10  1  0
 10 11  1  0
 11 12  1  0
 12 13  1  0
 13 14  1  0
 14 15  1  0
 15 16  1  0
 10 17  1  0
  6 18  1  0
 18 19  2  0
 19 20  1  0
 20 21  1  0
  2 22  1  0
 22 23  2  0
 23 24  1  0
 23 25  1  0
 25 26  2  0
 26 27  1  0
 27 28  1  0
 27 29  2  0
 29 30  1  0
 20  4  2  0
 29 22  1  0
 17  7  2  0
 16 11  1  0
  1 31  1  0
  1 32  1  0
  1 33  1  0
  2 34  1  6
  5 35  1  0
  8 36  1  0
 11 37  1  0
 12 38  1  0
 12 39  1  0
 13 40  1  0
 13 41  1  0
 14 42  1  0
 15 43  1  0
 15 44  1  0
 16 45  1  0
 16 46  1  0
 17 47  1  0
 18 48  1  0
 21 49  1  0
 21 50  1  0
 25 51  1  0
 26 52  1  0
M  END
$$$$
