
     RDKit          3D

 56 58  0  0  0  0  0  0  0  0999 V2000
   -5.2911    0.5590    2.0297 C   0  0  0  0  0  0  0  0  0  0  0  0
   -5.3698    0.3843    0.5162 C   0  0  0  0  0  0  0  0  0  0  0  0
   -4.2757   -0.4268   -0.0411 N   0  0  0  0  0  0  0  0  0  0  0  0
   -4.2035   -1.7946    0.5004 C   0  0  0  0  0  0  0  0  0  0  0  0
   -5.4219   -2.6818    0.2614 C   0  0  0  0  0  0  0  0  0  0  0  0
   -4.3094   -0.4400   -1.5248 C   0  0  0  0  0  0  0  0  0  0  0  0
   -3.7873    0.8718   -2.1432 C   0  0  0  0  0  0  0  0  0  0  0  0
   -2.4661    1.2019   -1.6448 N   0  0  0  0  0  0  0  0  0  0  0  0
   -1.3395    0.6463   -2.2112 C   0  0  0  0  0  0  0  0  0  0  0  0
   -1.3729    0.0078   -3.2596 O   0  0  0  0  0  0  0  0  0  0  0  0
   -0.1054    0.8215   -1.4335 C   0  0  0  0  0  0  0  0  0  0  0  0
    0.2169    1.8641   -0.5727 C   0  0  0  0  0  0  0  0  0  0  0  0
   -0.5045    3.1070   -0.1879 C   0  0  0  0  0  0  0  0  0  0  0  0
    1.4658    1.6117   -0.0590 N   0  0  0  0  0  0  0  0  0  0  0  0
    1.9998    0.4665   -0.5901 C   0  0  0  0  0  0  0  0  0  0  0  0
    3.3080    0.0104   -0.2576 C   0  0  0  0  0  0  0  0  0  0  0  0
    4.1908    0.5017    0.6279 C   0  0  0  0  0  0  0  0  0  0  0  0
    4.1097    1.6871    1.5615 C   0  0  0  0  0  0  0  0  0  0  0  0
    3.1976    2.4800    1.7011 O   0  0  0  0  0  0  0  0  0  0  0  0
    5.3141    1.7049    2.2446 N   0  0  0  0  0  0  0  0  0  0  0  0
    6.1444    0.6685    1.8406 C   0  0  0  0  0  0  0  0  0  0  0  0
    7.4142    0.3974    2.3132 C   0  0  0  0  0  0  0  0  0  0  0  0
    8.0775   -0.7016    1.7652 C   0  0  0  0  0  0  0  0  0  0  0  0
    7.4570   -1.4811    0.7779 C   0  0  0  0  0  0  0  0  0  0  0  0
    8.1174   -2.5295    0.2689 F   0  0  0  0  0  0  0  0  0  0  0  0
    6.1741   -1.1953    0.3104 C   0  0  0  0  0  0  0  0  0  0  0  0
    5.5187   -0.1043    0.8554 C   0  0  0  0  0  0  0  0  0  0  0  0
    1.0386   -0.0585   -1.4489 C   0  0  0  0  0  0  0  0  0  0  0  0
    1.1373   -1.3085   -2.2603 C   0  0  0  0  0  0  0  0  0  0  0  0
   -6.0371    1.2906    2.3583 H   0  0  0  0  0  0  0  0  0  0  0  0
   -4.3053    0.9264    2.3343 H   0  0  0  0  0  0  0  0  0  0  0  0
   -5.4955   -0.3756    2.5604 H   0  0  0  0  0  0  0  0  0  0  0  0
   -6.3506   -0.0241    0.2449 H   0  0  0  0  0  0  0  0  0  0  0  0
   -5.3260    1.3926    0.0897 H   0  0  0  0  0  0  0  0  0  0  0  0
   -3.3206   -2.2935    0.0791 H   0  0  0  0  0  0  0  0  0  0  0  0
   -3.9990   -1.7531    1.5765 H   0  0  0  0  0  0  0  0  0  0  0  0
   -5.6305   -2.8051   -0.8058 H   0  0  0  0  0  0  0  0  0  0  0  0
   -6.3169   -2.2825    0.7478 H   0  0  0  0  0  0  0  0  0  0  0  0
   -5.2392   -3.6779    0.6783 H   0  0  0  0  0  0  0  0  0  0  0  0
   -5.3199   -0.6487   -1.8970 H   0  0  0  0  0  0  0  0  0  0  0  0
   -3.6621   -1.2459   -1.8954 H   0  0  0  0  0  0  0  0  0  0  0  0
   -4.4425    1.7141   -1.9034 H   0  0  0  0  0  0  0  0  0  0  0  0
   -3.7545    0.7771   -3.2342 H   0  0  0  0  0  0  0  0  0  0  0  0
   -2.4121    1.3615   -0.6475 H   0  0  0  0  0  0  0  0  0  0  0  0
   -1.2503    2.8926    0.5838 H   0  0  0  0  0  0  0  0  0  0  0  0
   -1.0083    3.5502   -1.0524 H   0  0  0  0  0  0  0  0  0  0  0  0
    0.1837    3.8602    0.2107 H   0  0  0  0  0  0  0  0  0  0  0  0
    1.9325    2.2172    0.6094 H   0  0  0  0  0  0  0  0  0  0  0  0
    3.6157   -0.8705   -0.8162 H   0  0  0  0  0  0  0  0  0  0  0  0
    5.5336    2.4011    2.9403 H   0  0  0  0  0  0  0  0  0  0  0  0
    7.8829    1.0069    3.0772 H   0  0  0  0  0  0  0  0  0  0  0  0
    9.0790   -0.9640    2.0958 H   0  0  0  0  0  0  0  0  0  0  0  0
    5.7303   -1.8216   -0.4538 H   0  0  0  0  0  0  0  0  0  0  0  0
    1.9707   -1.9413   -1.9423 H   0  0  0  0  0  0  0  0  0  0  0  0
    1.2825   -1.0618   -3.3166 H   0  0  0  0  0  0  0  0  0  0  0  0
    0.2249   -1.9058   -2.1615 H   0  0  0  0  0  0  0  0  0  0  0  0
  1  2  1  0
  2  3  1  0
  3  4  1  0
  4  5  1  0
  3  6  1  0
  6  7  1  0
  7  8  1  0
  8  9  1  0
  9 10  2  0
  9 11  1  0
 11 12  2  0
 12 13  1  0
 12 14  1  0
 14 15  1  0
 15 16  1  0
 16 17  2  0
 17 18  1  0
 18 19  2  0
 18 20  1  0
 20 21  1  0
 21 22  1  0
 22 23  2  0
 23 24  1  0
 24 25  1  0
 24 26  2  0
 26 27  1  0
 15 28  2  0
 28 29  1  0
 28 11  1  0
 27 17  1  0
 27 21  2  0
  1 30  1  0
  1 31  1  0
  1 32  1  0
  2 33  1  0
  2 34  1  0
  4 35  1  0
  4 36  1  0
  5 37  1  0
  5 38  1  0
  5 39  1  0
  6 40  1  0
  6 41  1  0
  7 42  1  0
  7 43  1  0
  8 44  1  0
 13 45  1  0
 13 46  1  0
 13 47  1  0
 14 48  1  0
 16 49  1  0
 20 50  1  0
 22 51  1  0
 23 52  1  0
 26 53  1  0
 29 54  1  0
 29 55  1  0
 29 56  1  0
M  END
$$$$
