
     RDKit          3D

 57 60  0  0  0  0  0  0  0  0999 V2000
   -5.0129    3.4006   -2.1155 C   0  0  0  0  0  0  0  0  0  0  0  0
   -4.8746    3.2455   -0.7024 O   0  0  0  0  0  0  0  0  0  0  0  0
   -4.6912    1.9235   -0.3919 C   0  0  0  0  0  0  0  0  0  0  0  0
   -3.3894    1.4623   -0.1972 C   0  0  0  0  0  0  0  0  0  0  0  0
   -3.1418    0.1234    0.1420 C   0  0  0  0  0  0  0  0  0  0  0  0
   -1.8117   -0.2795    0.3244 N   0  0  0  0  0  0  0  0  0  0  0  0
   -1.1948   -1.4913    0.6185 C   0  0  0  0  0  0  0  0  0  0  0  0
   -1.8978   -2.6055    0.8734 N   0  0  0  0  0  0  0  0  0  0  0  0
   -1.2000   -3.7257    1.1409 C   0  0  0  0  0  0  0  0  0  0  0  0
    0.1676   -3.7700    1.1542 C   0  0  0  0  0  0  0  0  0  0  0  0
    0.8216   -4.9112    1.4104 F   0  0  0  0  0  0  0  0  0  0  0  0
    0.8333   -2.5899    0.8755 C   0  0  0  0  0  0  0  0  0  0  0  0
    2.2441   -2.5967    0.9067 N   0  0  0  0  0  0  0  0  0  0  0  0
    3.1300   -1.5427    0.6853 C   0  0  0  0  0  0  0  0  0  0  0  0
    2.8900   -0.2478    1.1393 C   0  0  0  0  0  0  0  0  0  0  0  0
    3.8392    0.7470    0.9154 C   0  0  0  0  0  0  0  0  0  0  0  0
    5.0037    0.4252    0.2378 C   0  0  0  0  0  0  0  0  0  0  0  0
    5.1745   -0.8925   -0.1684 C   0  0  0  0  0  0  0  0  0  0  0  0
    4.2755   -1.8739    0.0500 N   0  0  0  0  0  0  0  0  0  0  0  0
    6.3510   -1.2644   -0.7982 N   0  0  0  0  0  0  0  0  0  0  0  0
    7.3480   -0.3715   -1.0603 C   0  0  0  0  0  0  0  0  0  0  0  0
    8.4344   -0.7499   -1.4922 O   0  0  0  0  0  0  0  0  0  0  0  0
    6.9619    1.1180   -0.8835 C   0  0  0  0  0  0  0  0  0  0  0  0
    6.5163    1.6523   -2.2530 C   0  0  0  0  0  0  0  0  0  0  0  0
    8.1972    1.8947   -0.4157 C   0  0  0  0  0  0  0  0  0  0  0  0
    5.9213    1.4185    0.0548 O   0  0  0  0  0  0  0  0  0  0  0  0
    0.1498   -1.4516    0.6241 N   0  0  0  0  0  0  0  0  0  0  0  0
   -4.2462   -0.7298    0.3026 C   0  0  0  0  0  0  0  0  0  0  0  0
   -5.5631   -0.2756    0.1272 C   0  0  0  0  0  0  0  0  0  0  0  0
   -6.6862   -1.0494    0.2780 O   0  0  0  0  0  0  0  0  0  0  0  0
   -6.4943   -2.4509    0.4134 C   0  0  0  0  0  0  0  0  0  0  0  0
   -5.7786    1.0691   -0.1988 C   0  0  0  0  0  0  0  0  0  0  0  0
   -7.0582    1.5310   -0.3966 O   0  0  0  0  0  0  0  0  0  0  0  0
   -7.5430    2.1290    0.8078 C   0  0  0  0  0  0  0  0  0  0  0  0
   -5.3988    4.4063   -2.3053 H   0  0  0  0  0  0  0  0  0  0  0  0
   -5.7139    2.6789   -2.5547 H   0  0  0  0  0  0  0  0  0  0  0  0
   -4.0310    3.3140   -2.5999 H   0  0  0  0  0  0  0  0  0  0  0  0
   -2.5679    2.1630   -0.3131 H   0  0  0  0  0  0  0  0  0  0  0  0
   -1.0995    0.4095    0.1274 H   0  0  0  0  0  0  0  0  0  0  0  0
   -1.7881   -4.6130    1.3514 H   0  0  0  0  0  0  0  0  0  0  0  0
    2.6312   -3.4309    0.4759 H   0  0  0  0  0  0  0  0  0  0  0  0
    1.9835   -0.0087    1.6842 H   0  0  0  0  0  0  0  0  0  0  0  0
    3.6698    1.7579    1.2743 H   0  0  0  0  0  0  0  0  0  0  0  0
    6.5057   -2.2474   -0.9700 H   0  0  0  0  0  0  0  0  0  0  0  0
    6.2640    2.7172   -2.1958 H   0  0  0  0  0  0  0  0  0  0  0  0
    5.6165    1.1361   -2.6049 H   0  0  0  0  0  0  0  0  0  0  0  0
    7.2936    1.5177   -3.0127 H   0  0  0  0  0  0  0  0  0  0  0  0
    9.0417    1.7818   -1.1038 H   0  0  0  0  0  0  0  0  0  0  0  0
    8.5166    1.5434    0.5730 H   0  0  0  0  0  0  0  0  0  0  0  0
    7.9755    2.9627   -0.3129 H   0  0  0  0  0  0  0  0  0  0  0  0
   -4.0713   -1.7612    0.5803 H   0  0  0  0  0  0  0  0  0  0  0  0
   -6.0012   -2.6888    1.3605 H   0  0  0  0  0  0  0  0  0  0  0  0
   -7.4813   -2.9227    0.4261 H   0  0  0  0  0  0  0  0  0  0  0  0
   -5.9389   -2.8605   -0.4366 H   0  0  0  0  0  0  0  0  0  0  0  0
   -6.9614    3.0204    1.0738 H   0  0  0  0  0  0  0  0  0  0  0  0
   -7.5431    1.4131    1.6387 H   0  0  0  0  0  0  0  0  0  0  0  0
   -8.5771    2.4407    0.6324 H   0  0  0  0  0  0  0  0  0  0  0  0
  1  2  1  0
  2  3  1  0
  3  4  2  0
  4  5  1  0
  5  6  1  0
  6  7  1  0
  7  8  2  0
  8  9  1  0
  9 10  2  0
 10 11  1  0
 10 12  1  0
 12 13  1  0
 13 14  1  0
 14 15  2  0
 15 16  1  0
 16 17  2  0
 17 18  1  0
 18 19  2  0
 18 20  1  0
 20 21  1  0
 21 22  2  0
 21 23  1  0
 23 24  1  0
 23 25  1  0
 23 26  1  0
 12 27  2  0
  5 28  2  0
 28 29  1  0
 29 30  1  0
 30 31  1  0
 29 32  2  0
 32 33  1  0
 33 34  1  0
 32  3  1  0
 27  7  1  0
 19 14  1  0
 26 17  1  0
  1 35  1  0
  1 36  1  0
  1 37  1  0
  4 38  1  0
  6 39  1  0
  9 40  1  0
 13 41  1  0
 15 42  1  0
 16 43  1  0
 20 44  1  0
 24 45  1  0
 24 46  1  0
 24 47  1  0
 25 48  1  0
 25 49  1  0
 25 50  1  0
 28 51  1  0
 31 52  1  0
 31 53  1  0
 31 54  1  0
 34 55  1  0
 34 56  1  0
 34 57  1  0
M  END
$$$$
