
     RDKit          3D

 68 71  0  0  0  0  0  0  0  0999 V2000
  -10.1310    2.1175    0.3568 C   0  0  0  0  0  0  0  0  0  0  0  0
   -8.6343    2.0453    0.0714 C   0  0  0  0  0  0  0  0  0  0  0  0
   -8.2757    0.9116   -0.7918 N   0  0  0  0  0  0  0  0  0  0  0  0
   -8.4338   -0.4041   -0.1370 C   0  0  0  0  0  0  0  0  0  0  0  0
   -7.3813   -0.7175    0.9525 C   0  0  0  0  0  0  0  0  0  0  0  0
   -5.9975   -0.5931    0.4558 N   0  0  0  0  0  0  0  0  0  0  0  0
   -5.0373   -0.8330    1.5368 C   0  0  0  0  0  0  0  0  0  0  0  0
   -3.6255   -1.0457    1.0226 C   0  0  0  0  0  0  0  0  0  0  0  0
   -2.6155   -0.1653    1.4452 C   0  0  0  0  0  0  0  0  0  0  0  0
   -1.2995   -0.3006    0.9933 C   0  0  0  0  0  0  0  0  0  0  0  0
   -0.9600   -1.3139    0.1025 C   0  0  0  0  0  0  0  0  0  0  0  0
    0.3436   -1.5233   -0.3932 N   0  0  0  0  0  0  0  0  0  0  0  0
    1.4426   -0.6850   -0.2557 C   0  0  0  0  0  0  0  0  0  0  0  0
    1.4109    0.4362    0.2332 O   0  0  0  0  0  0  0  0  0  0  0  0
    2.5789   -1.3080   -0.7535 N   0  0  0  0  0  0  0  0  0  0  0  0
    3.8703   -0.7561   -0.8886 C   0  0  0  0  0  0  0  0  0  0  0  0
    4.9079   -1.6336   -1.2367 C   0  0  0  0  0  0  0  0  0  0  0  0
    6.2152   -1.1656   -1.3944 C   0  0  0  0  0  0  0  0  0  0  0  0
    6.4903    0.1844   -1.1929 C   0  0  0  0  0  0  0  0  0  0  0  0
    7.7570    0.6721   -1.3905 O   0  0  0  0  0  0  0  0  0  0  0  0
    8.6584    0.5039   -0.3402 C   0  0  0  0  0  0  0  0  0  0  0  0
    9.9266    0.9913   -0.5591 C   0  0  0  0  0  0  0  0  0  0  0  0
   10.8221    0.8417    0.4759 C   0  0  0  0  0  0  0  0  0  0  0  0
   12.1471    1.2744    0.3845 N   0  0  0  0  0  0  0  0  0  0  0  0
   12.3017    2.6892    0.0883 C   0  0  0  0  0  0  0  0  0  0  0  0
   10.4906    0.2371    1.6254 N   0  0  0  0  0  0  0  0  0  0  0  0
    9.2265   -0.1995    1.7313 C   0  0  0  0  0  0  0  0  0  0  0  0
    8.2746   -0.0939    0.8007 N   0  0  0  0  0  0  0  0  0  0  0  0
    5.4664    1.0727   -0.8769 C   0  0  0  0  0  0  0  0  0  0  0  0
    4.1590    0.6008   -0.7208 C   0  0  0  0  0  0  0  0  0  0  0  0
   -1.9573   -2.2034   -0.3150 C   0  0  0  0  0  0  0  0  0  0  0  0
   -3.2912   -2.0932    0.1372 C   0  0  0  0  0  0  0  0  0  0  0  0
   -4.3123   -3.0897   -0.3767 C   0  0  0  0  0  0  0  0  0  0  0  0
   -3.7204   -4.2439   -0.8172 F   0  0  0  0  0  0  0  0  0  0  0  0
   -5.0254   -2.6341   -1.4421 F   0  0  0  0  0  0  0  0  0  0  0  0
   -5.2119   -3.5039    0.5588 F   0  0  0  0  0  0  0  0  0  0  0  0
   -5.8045    0.7233   -0.1851 C   0  0  0  0  0  0  0  0  0  0  0  0
   -6.8765    1.0193   -1.2622 C   0  0  0  0  0  0  0  0  0  0  0  0
  -10.3665    3.0563    0.8696 H   0  0  0  0  0  0  0  0  0  0  0  0
  -10.4647    1.3003    1.0028 H   0  0  0  0  0  0  0  0  0  0  0  0
  -10.7129    2.0888   -0.5705 H   0  0  0  0  0  0  0  0  0  0  0  0
   -8.0834    2.0410    1.0183 H   0  0  0  0  0  0  0  0  0  0  0  0
   -8.3683    2.9783   -0.4417 H   0  0  0  0  0  0  0  0  0  0  0  0
   -9.4395   -0.5177    0.2813 H   0  0  0  0  0  0  0  0  0  0  0  0
   -8.3643   -1.1758   -0.9161 H   0  0  0  0  0  0  0  0  0  0  0  0
   -7.5490   -1.7461    1.2949 H   0  0  0  0  0  0  0  0  0  0  0  0
   -7.5417   -0.0605    1.8168 H   0  0  0  0  0  0  0  0  0  0  0  0
   -5.0642   -0.0094    2.2630 H   0  0  0  0  0  0  0  0  0  0  0  0
   -5.3076   -1.7319    2.1059 H   0  0  0  0  0  0  0  0  0  0  0  0
   -2.8444    0.6472    2.1329 H   0  0  0  0  0  0  0  0  0  0  0  0
   -0.5617    0.4053    1.3632 H   0  0  0  0  0  0  0  0  0  0  0  0
    0.4543   -2.2843   -1.0456 H   0  0  0  0  0  0  0  0  0  0  0  0
    2.5137   -2.3062   -0.8775 H   0  0  0  0  0  0  0  0  0  0  0  0
    4.7175   -2.6927   -1.3856 H   0  0  0  0  0  0  0  0  0  0  0  0
    7.0133   -1.8515   -1.6619 H   0  0  0  0  0  0  0  0  0  0  0  0
   10.1989    1.4474   -1.4992 H   0  0  0  0  0  0  0  0  0  0  0  0
   12.5558    1.0356    1.2886 H   0  0  0  0  0  0  0  0  0  0  0  0
   11.9815    2.9266   -0.9312 H   0  0  0  0  0  0  0  0  0  0  0  0
   11.7454    3.3110    0.7984 H   0  0  0  0  0  0  0  0  0  0  0  0
   13.3601    2.9566    0.1679 H   0  0  0  0  0  0  0  0  0  0  0  0
    8.9522   -0.6836    2.6620 H   0  0  0  0  0  0  0  0  0  0  0  0
    5.6788    2.1293   -0.7452 H   0  0  0  0  0  0  0  0  0  0  0  0
    3.3864    1.3222   -0.4743 H   0  0  0  0  0  0  0  0  0  0  0  0
   -1.7075   -3.0047   -1.0095 H   0  0  0  0  0  0  0  0  0  0  0  0
   -5.8144    1.5228    0.5668 H   0  0  0  0  0  0  0  0  0  0  0  0
   -4.8265    0.7576   -0.6790 H   0  0  0  0  0  0  0  0  0  0  0  0
   -6.7426    0.3123   -2.0922 H   0  0  0  0  0  0  0  0  0  0  0  0
   -6.6977    2.0115   -1.6949 H   0  0  0  0  0  0  0  0  0  0  0  0
  1  2  1  0
  2  3  1  0
  3  4  1  0
  4  5  1  0
  5  6  1  0
  6  7  1  0
  7  8  1  0
  8  9  1  0
  9 10  2  0
 10 11  1  0
 11 12  1  0
 12 13  1  0
 13 14  2  0
 13 15  1  0
 15 16  1  0
 16 17  1  0
 17 18  2  0
 18 19  1  0
 19 20  1  0
 20 21  1  0
 21 22  2  0
 22 23  1  0
 23 24  1  0
 24 25  1  0
 23 26  2  0
 26 27  1  0
 27 28  2  0
 19 29  2  0
 29 30  1  0
 11 31  2  0
 31 32  1  0
 32 33  1  0
 33 34  1  0
 33 35  1  0
 33 36  1  0
  6 37  1  0
 37 38  1  0
 38  3  1  0
 32  8  2  0
 30 16  2  0
 28 21  1  0
  1 39  1  0
  1 40  1  0
  1 41  1  0
  2 42  1  0
  2 43  1  0
  4 44  1  0
  4 45  1  0
  5 46  1  0
  5 47  1  0
  7 48  1  0
  7 49  1  0
  9 50  1  0
 10 51  1  0
 12 52  1  0
 15 53  1  0
 17 54  1  0
 18 55  1  0
 22 56  1  0
 24 57  1  0
 25 58  1  0
 25 59  1  0
 25 60  1  0
 27 61  1  0
 29 62  1  0
 30 63  1  0
 31 64  1  0
 37 65  1  0
 37 66  1  0
 38 67  1  0
 38 68  1  0
M  END
$$$$
