
     RDKit          3D

 80 85  0  0  0  0  0  0  0  0999 V2000
   -2.6711    1.1660    4.7438 C   0  0  0  0  0  0  0  0  0  0  0  0
   -3.5828    0.5238    3.8647 O   0  0  0  0  0  0  0  0  0  0  0  0
   -3.3187    0.6010    2.5236 C   0  0  0  0  0  0  0  0  0  0  0  0
   -2.1373    1.0787    1.9592 C   0  0  0  0  0  0  0  0  0  0  0  0
   -1.9665    1.1193    0.5528 C   0  0  0  0  0  0  0  0  0  0  0  0
   -0.7924    1.5883   -0.0672 C   0  0  0  0  0  0  0  0  0  0  0  0
    0.2481    2.0313    0.7200 O   0  0  0  0  0  0  0  0  0  0  0  0
    1.4421    1.3473    0.6771 C   0  0  0  0  0  0  0  0  0  0  0  0
    1.6396    0.0866    0.1133 C   0  0  0  0  0  0  0  0  0  0  0  0
    2.9147   -0.4953    0.1129 C   0  0  0  0  0  0  0  0  0  0  0  0
    4.0047    0.1633    0.6894 C   0  0  0  0  0  0  0  0  0  0  0  0
    5.3163   -0.3477    0.6963 N   0  0  0  0  0  0  0  0  0  0  0  0
    5.7929   -1.4151   -0.0371 C   0  0  0  0  0  0  0  0  0  0  0  0
    5.1743   -2.1187   -0.8228 O   0  0  0  0  0  0  0  0  0  0  0  0
    7.2646   -1.6489    0.1410 C   0  0  0  0  0  0  0  0  0  0  0  0
    8.1582   -0.5517   -0.3568 C   0  0  0  0  0  0  0  0  0  0  0  0
    8.5714    0.2727    0.4481 O   0  0  0  0  0  0  0  0  0  0  0  0
    8.3632   -0.5935   -1.7197 N   0  0  0  0  0  0  0  0  0  0  0  0
    9.1507    0.2792   -2.4935 C   0  0  0  0  0  0  0  0  0  0  0  0
    9.9125    1.3235   -1.9583 C   0  0  0  0  0  0  0  0  0  0  0  0
   10.6756    2.1444   -2.7954 C   0  0  0  0  0  0  0  0  0  0  0  0
   10.6764    1.9197   -4.1654 C   0  0  0  0  0  0  0  0  0  0  0  0
   11.4124    2.7029   -4.9650 F   0  0  0  0  0  0  0  0  0  0  0  0
    9.9307    0.8857   -4.7145 C   0  0  0  0  0  0  0  0  0  0  0  0
    9.1653    0.0664   -3.8799 C   0  0  0  0  0  0  0  0  0  0  0  0
    7.7008   -2.4180    1.3877 C   0  0  0  0  0  0  0  0  0  0  0  0
    7.7927   -3.0805    0.0507 C   0  0  0  0  0  0  0  0  0  0  0  0
    3.7950    1.4054    1.2939 C   0  0  0  0  0  0  0  0  0  0  0  0
    2.5267    1.9840    1.2785 C   0  0  0  0  0  0  0  0  0  0  0  0
    2.3640    3.1839    1.8521 F   0  0  0  0  0  0  0  0  0  0  0  0
   -0.7034    1.6803   -1.4518 C   0  0  0  0  0  0  0  0  0  0  0  0
   -1.7782    1.2305   -2.1863 C   0  0  0  0  0  0  0  0  0  0  0  0
   -2.9017    0.7210   -1.6380 N   0  0  0  0  0  0  0  0  0  0  0  0
   -2.9971    0.6751   -0.2970 C   0  0  0  0  0  0  0  0  0  0  0  0
   -4.1522    0.1730    0.2767 C   0  0  0  0  0  0  0  0  0  0  0  0
   -4.3198    0.1436    1.6629 C   0  0  0  0  0  0  0  0  0  0  0  0
   -5.4665   -0.4144    2.1698 O   0  0  0  0  0  0  0  0  0  0  0  0
   -6.5074    0.5664    2.2392 C   0  0  0  0  0  0  0  0  0  0  0  0
   -7.8246   -0.1388    2.5663 C   0  0  0  0  0  0  0  0  0  0  0  0
   -8.2248   -1.1920    1.5215 C   0  0  0  0  0  0  0  0  0  0  0  0
   -8.3521   -0.6626    0.1544 N   0  0  0  0  0  0  0  0  0  0  0  0
   -8.4430   -1.7763   -0.8161 C   0  0  0  0  0  0  0  0  0  0  0  0
   -8.6188   -1.2601   -2.2534 C   0  0  0  0  0  0  0  0  0  0  0  0
   -9.7873   -0.4373   -2.3690 O   0  0  0  0  0  0  0  0  0  0  0  0
   -9.6945    0.6721   -1.4658 C   0  0  0  0  0  0  0  0  0  0  0  0
   -9.5382    0.2041   -0.0076 C   0  0  0  0  0  0  0  0  0  0  0  0
   -2.5520    2.2278    4.5019 H   0  0  0  0  0  0  0  0  0  0  0  0
   -1.7046    0.6537    4.7475 H   0  0  0  0  0  0  0  0  0  0  0  0
   -3.0863    1.0985    5.7546 H   0  0  0  0  0  0  0  0  0  0  0  0
   -1.3224    1.4207    2.5896 H   0  0  0  0  0  0  0  0  0  0  0  0
    0.8261   -0.4732   -0.3396 H   0  0  0  0  0  0  0  0  0  0  0  0
    3.0220   -1.4741   -0.3489 H   0  0  0  0  0  0  0  0  0  0  0  0
    6.0147    0.1987    1.1991 H   0  0  0  0  0  0  0  0  0  0  0  0
    7.8748   -1.3282   -2.2226 H   0  0  0  0  0  0  0  0  0  0  0  0
    9.9419    1.5255   -0.8919 H   0  0  0  0  0  0  0  0  0  0  0  0
   11.2668    2.9541   -2.3811 H   0  0  0  0  0  0  0  0  0  0  0  0
    9.9459    0.7245   -5.7863 H   0  0  0  0  0  0  0  0  0  0  0  0
    8.5862   -0.7372   -4.3318 H   0  0  0  0  0  0  0  0  0  0  0  0
    6.9367   -2.7689    2.0738 H   0  0  0  0  0  0  0  0  0  0  0  0
    8.6202   -2.1126    1.8783 H   0  0  0  0  0  0  0  0  0  0  0  0
    7.0887   -3.8771   -0.1668 H   0  0  0  0  0  0  0  0  0  0  0  0
    8.7806   -3.2485   -0.3637 H   0  0  0  0  0  0  0  0  0  0  0  0
    4.6033    1.9562    1.7615 H   0  0  0  0  0  0  0  0  0  0  0  0
    0.1727    2.0840   -1.9410 H   0  0  0  0  0  0  0  0  0  0  0  0
   -1.7672    1.2631   -3.2725 H   0  0  0  0  0  0  0  0  0  0  0  0
   -4.9469   -0.1974   -0.3659 H   0  0  0  0  0  0  0  0  0  0  0  0
   -6.6019    1.1242    1.2986 H   0  0  0  0  0  0  0  0  0  0  0  0
   -6.2728    1.2793    3.0405 H   0  0  0  0  0  0  0  0  0  0  0  0
   -8.6235    0.6003    2.6978 H   0  0  0  0  0  0  0  0  0  0  0  0
   -7.7106   -0.6536    3.5302 H   0  0  0  0  0  0  0  0  0  0  0  0
   -9.1604   -1.6714    1.8361 H   0  0  0  0  0  0  0  0  0  0  0  0
   -7.4594   -1.9788    1.5385 H   0  0  0  0  0  0  0  0  0  0  0  0
   -9.3008   -2.4143   -0.5639 H   0  0  0  0  0  0  0  0  0  0  0  0
   -7.5341   -2.3893   -0.7699 H   0  0  0  0  0  0  0  0  0  0  0  0
   -7.7409   -0.6905   -2.5792 H   0  0  0  0  0  0  0  0  0  0  0  0
   -8.7402   -2.1032   -2.9389 H   0  0  0  0  0  0  0  0  0  0  0  0
   -8.8586    1.3168   -1.7650 H   0  0  0  0  0  0  0  0  0  0  0  0
  -10.6161    1.2544   -1.5710 H   0  0  0  0  0  0  0  0  0  0  0  0
   -9.4523    1.0950    0.6271 H   0  0  0  0  0  0  0  0  0  0  0  0
  -10.4435   -0.3432    0.2897 H   0  0  0  0  0  0  0  0  0  0  0  0
  1  2  1  0
  2  3  1  0
  3  4  1  0
  4  5  2  0
  5  6  1  0
  6  7  1  0
  7  8  1  0
  8  9  1  0
  9 10  2  0
 10 11  1  0
 11 12  1  0
 12 13  1  0
 13 14  2  0
 13 15  1  0
 15 16  1  0
 16 17  2  0
 16 18  1  0
 18 19  1  0
 19 20  1  0
 20 21  2  0
 21 22  1  0
 22 23  1  0
 22 24  2  0
 24 25  1  0
 15 26  1  0
 26 27  1  0
 11 28  2  0
 28 29  1  0
 29 30  1  0
  6 31  2  0
 31 32  1  0
 32 33  2  0
 33 34  1  0
 34 35  2  0
 35 36  1  0
 36 37  1  0
 37 38  1  0
 38 39  1  0
 39 40  1  0
 40 41  1  0
 41 42  1  0
 42 43  1  0
 43 44  1  0
 44 45  1  0
 45 46  1  0
 36  3  2  0
 46 41  1  0
 34  5  1  0
 29  8  2  0
 27 15  1  0
 25 19  2  0
  1 47  1  0
  1 48  1  0
  1 49  1  0
  4 50  1  0
  9 51  1  0
 10 52  1  0
 12 53  1  0
 18 54  1  0
 20 55  1  0
 21 56  1  0
 24 57  1  0
 25 58  1  0
 26 59  1  0
 26 60  1  0
 27 61  1  0
 27 62  1  0
 28 63  1  0
 31 64  1  0
 32 65  1  0
 35 66  1  0
 38 67  1  0
 38 68  1  0
 39 69  1  0
 39 70  1  0
 40 71  1  0
 40 72  1  0
 42 73  1  0
 42 74  1  0
 43 75  1  0
 43 76  1  0
 45 77  1  0
 45 78  1  0
 46 79  1  0
 46 80  1  0
M  END
$$$$
