
     RDKit          3D

 46 49  0  0  0  0  0  0  0  0999 V2000
    6.9144   -1.1960   -2.0288 C   0  0  0  0  0  0  0  0  0  0  0  0
    6.5338   -0.3273   -0.8644 C   0  0  0  0  0  0  0  0  0  0  0  0
    7.5156    0.3798   -0.1578 C   0  0  0  0  0  0  0  0  0  0  0  0
    7.1539    1.2107    0.9001 C   0  0  0  0  0  0  0  0  0  0  0  0
    5.8116    1.3370    1.2413 C   0  0  0  0  0  0  0  0  0  0  0  0
    5.4744    2.1440    2.2612 F   0  0  0  0  0  0  0  0  0  0  0  0
    4.8077    0.6500    0.5479 C   0  0  0  0  0  0  0  0  0  0  0  0
    3.4769    0.8633    0.9710 N   0  0  0  0  0  0  0  0  0  0  0  0
    2.3322    0.2164    0.5353 C   0  0  0  0  0  0  0  0  0  0  0  0
    2.3160   -0.7105   -0.2634 O   0  0  0  0  0  0  0  0  0  0  0  0
    1.2108    0.7743    1.1323 N   0  0  0  0  0  0  0  0  0  0  0  0
   -0.1284    0.3478    1.0184 C   0  0  0  0  0  0  0  0  0  0  0  0
   -1.1090    1.1584    1.6015 C   0  0  0  0  0  0  0  0  0  0  0  0
   -2.4609    0.8038    1.5367 C   0  0  0  0  0  0  0  0  0  0  0  0
   -2.8651   -0.3696    0.8874 C   0  0  0  0  0  0  0  0  0  0  0  0
   -4.2778   -0.7412    0.8140 C   0  0  0  0  0  0  0  0  0  0  0  0
   -4.7874   -1.8108    1.5794 C   0  0  0  0  0  0  0  0  0  0  0  0
   -6.1344   -2.1683    1.5274 C   0  0  0  0  0  0  0  0  0  0  0  0
   -7.0288   -1.4762    0.7102 C   0  0  0  0  0  0  0  0  0  0  0  0
   -6.5143   -0.4219   -0.0508 C   0  0  0  0  0  0  0  0  0  0  0  0
   -7.1224    0.4295   -0.9330 N   0  0  0  0  0  0  0  0  0  0  0  0
   -6.2989    1.3204   -1.5008 N   0  0  0  0  0  0  0  0  0  0  0  0
   -5.1159    1.0489   -0.9571 C   0  0  0  0  0  0  0  0  0  0  0  0
   -4.0100    1.7335   -1.2910 N   0  0  0  0  0  0  0  0  0  0  0  0
   -5.1745   -0.0351   -0.0288 C   0  0  0  0  0  0  0  0  0  0  0  0
   -1.8774   -1.1826    0.3169 C   0  0  0  0  0  0  0  0  0  0  0  0
   -0.5235   -0.8282    0.3813 C   0  0  0  0  0  0  0  0  0  0  0  0
    5.1796   -0.1757   -0.5144 C   0  0  0  0  0  0  0  0  0  0  0  0
    6.8670   -0.6185   -2.9570 H   0  0  0  0  0  0  0  0  0  0  0  0
    6.2411   -2.0559   -2.1096 H   0  0  0  0  0  0  0  0  0  0  0  0
    7.9294   -1.5892   -1.9088 H   0  0  0  0  0  0  0  0  0  0  0  0
    8.5647    0.2856   -0.4298 H   0  0  0  0  0  0  0  0  0  0  0  0
    7.9057    1.7606    1.4565 H   0  0  0  0  0  0  0  0  0  0  0  0
    3.3856    1.4756    1.7702 H   0  0  0  0  0  0  0  0  0  0  0  0
    1.3542    1.6502    1.6105 H   0  0  0  0  0  0  0  0  0  0  0  0
   -0.8425    2.0804    2.1113 H   0  0  0  0  0  0  0  0  0  0  0  0
   -3.2048    1.4569    1.9905 H   0  0  0  0  0  0  0  0  0  0  0  0
   -4.1185   -2.3677    2.2338 H   0  0  0  0  0  0  0  0  0  0  0  0
   -6.4926   -2.9966    2.1350 H   0  0  0  0  0  0  0  0  0  0  0  0
   -8.0775   -1.7523    0.6702 H   0  0  0  0  0  0  0  0  0  0  0  0
   -8.1002    0.4477   -1.1965 H   0  0  0  0  0  0  0  0  0  0  0  0
   -4.0798    2.2786   -2.1428 H   0  0  0  0  0  0  0  0  0  0  0  0
   -3.1052    1.2879   -1.1816 H   0  0  0  0  0  0  0  0  0  0  0  0
   -2.1552   -2.1041   -0.1920 H   0  0  0  0  0  0  0  0  0  0  0  0
    0.1967   -1.5012   -0.0738 H   0  0  0  0  0  0  0  0  0  0  0  0
    4.4335   -0.7125   -1.0935 H   0  0  0  0  0  0  0  0  0  0  0  0
  1  2  1  0
  2  3  1  0
  3  4  2  0
  4  5  1  0
  5  6  1  0
  5  7  2  0
  7  8  1  0
  8  9  1  0
  9 10  2  0
  9 11  1  0
 11 12  1  0
 12 13  1  0
 13 14  2  0
 14 15  1  0
 15 16  1  0
 16 17  1  0
 17 18  2  0
 18 19  1  0
 19 20  2  0
 20 21  1  0
 21 22  1  0
 22 23  2  0
 23 24  1  0
 23 25  1  0
 15 26  2  0
 26 27  1  0
  7 28  1  0
 28  2  2  0
 27 12  2  0
 25 16  2  0
 25 20  1  0
  1 29  1  0
  1 30  1  0
  1 31  1  0
  3 32  1  0
  4 33  1  0
  8 34  1  0
 11 35  1  0
 13 36  1  0
 14 37  1  0
 17 38  1  0
 18 39  1  0
 19 40  1  0
 21 41  1  0
 24 42  1  0
 24 43  1  0
 26 44  1  0
 27 45  1  0
 28 46  1  0
M  END
$$$$
