
     RDKit          3D

 72 77  0  0  0  0  0  0  0  0999 V2000
   11.8299   -2.4280    0.5842 C   0  0  0  0  0  0  0  0  0  0  0  0
   11.5534   -0.9147    0.5892 C   0  0  0  0  0  0  0  0  0  0  0  0
   12.8635   -0.1580    0.2992 C   0  0  0  0  0  0  0  0  0  0  0  0
   11.0597   -0.4966    1.9885 C   0  0  0  0  0  0  0  0  0  0  0  0
   10.5119   -0.5983   -0.4510 C   0  0  0  0  0  0  0  0  0  0  0  0
    9.1392   -0.5017   -0.4430 C   0  0  0  0  0  0  0  0  0  0  0  0
    8.7888   -0.1640   -1.7677 C   0  0  0  0  0  0  0  0  0  0  0  0
    7.5507    0.1025   -2.3100 N   0  0  0  0  0  0  0  0  0  0  0  0
    6.3481   -0.0122   -1.6429 C   0  0  0  0  0  0  0  0  0  0  0  0
    6.2264   -0.4978   -0.5260 O   0  0  0  0  0  0  0  0  0  0  0  0
    5.3155    0.5055   -2.4088 N   0  0  0  0  0  0  0  0  0  0  0  0
    3.9442    0.5590   -2.0829 C   0  0  0  0  0  0  0  0  0  0  0  0
    3.3752   -0.0685   -0.9743 C   0  0  0  0  0  0  0  0  0  0  0  0
    2.0035    0.0556   -0.7074 C   0  0  0  0  0  0  0  0  0  0  0  0
    1.1766    0.8083   -1.5479 C   0  0  0  0  0  0  0  0  0  0  0  0
   -0.2403    0.9887   -1.2782 C   0  0  0  0  0  0  0  0  0  0  0  0
   -1.0471    0.1375   -0.5314 C   0  0  0  0  0  0  0  0  0  0  0  0
   -2.2664    0.7403   -0.5528 N   0  0  0  0  0  0  0  0  0  0  0  0
   -2.1616    1.8833   -1.2857 C   0  0  0  0  0  0  0  0  0  0  0  0
   -0.9617    2.0765   -1.7603 N   0  0  0  0  0  0  0  0  0  0  0  0
   -3.6513    2.7659   -1.3817 S   0  0  0  0  0  0  0  0  0  0  0  0
   -4.4170    1.4935   -0.3638 C   0  0  0  0  0  0  0  0  0  0  0  0
   -5.7314    1.4478    0.0746 C   0  0  0  0  0  0  0  0  0  0  0  0
   -6.1281    0.3637    0.8654 C   0  0  0  0  0  0  0  0  0  0  0  0
   -7.3831    0.1718    1.3789 O   0  0  0  0  0  0  0  0  0  0  0  0
   -8.2980    1.2700    1.2938 C   0  0  0  0  0  0  0  0  0  0  0  0
   -9.5870    0.9135    2.0609 C   0  0  0  0  0  0  0  0  0  0  0  0
  -10.5980    0.1861    1.2637 N   0  0  0  0  0  0  0  0  0  0  0  0
  -10.1060   -1.1314    0.8001 C   0  0  0  0  0  0  0  0  0  0  0  0
  -11.2049   -1.9110    0.0593 C   0  0  0  0  0  0  0  0  0  0  0  0
  -12.3610   -2.1002    0.8848 O   0  0  0  0  0  0  0  0  0  0  0  0
  -12.8785   -0.8289    1.2960 C   0  0  0  0  0  0  0  0  0  0  0  0
  -11.8214   -0.0284    2.0719 C   0  0  0  0  0  0  0  0  0  0  0  0
   -5.2089   -0.6598    1.1870 C   0  0  0  0  0  0  0  0  0  0  0  0
   -3.8820   -0.6168    0.7504 C   0  0  0  0  0  0  0  0  0  0  0  0
   -3.5189    0.4710   -0.0171 C   0  0  0  0  0  0  0  0  0  0  0  0
    1.7485    1.4260   -2.6662 C   0  0  0  0  0  0  0  0  0  0  0  0
    3.1158    1.2983   -2.9343 C   0  0  0  0  0  0  0  0  0  0  0  0
    9.8760   -0.0820   -2.5412 N   0  0  0  0  0  0  0  0  0  0  0  0
   10.9519   -0.3633   -1.7195 O   0  0  0  0  0  0  0  0  0  0  0  0
   10.9317   -2.9973    0.8454 H   0  0  0  0  0  0  0  0  0  0  0  0
   12.6132   -2.6922    1.3036 H   0  0  0  0  0  0  0  0  0  0  0  0
   12.1551   -2.7697   -0.4050 H   0  0  0  0  0  0  0  0  0  0  0  0
   12.6942    0.9239    0.2499 H   0  0  0  0  0  0  0  0  0  0  0  0
   13.3051   -0.4653   -0.6556 H   0  0  0  0  0  0  0  0  0  0  0  0
   13.6100   -0.3427    1.0800 H   0  0  0  0  0  0  0  0  0  0  0  0
   11.8198   -0.6945    2.7539 H   0  0  0  0  0  0  0  0  0  0  0  0
   10.8260    0.5755    2.0201 H   0  0  0  0  0  0  0  0  0  0  0  0
   10.1535   -1.0410    2.2792 H   0  0  0  0  0  0  0  0  0  0  0  0
    8.4893   -0.6393    0.4075 H   0  0  0  0  0  0  0  0  0  0  0  0
    7.5753    0.3138   -3.2941 H   0  0  0  0  0  0  0  0  0  0  0  0
    5.5922    1.0325   -3.2220 H   0  0  0  0  0  0  0  0  0  0  0  0
    3.9706   -0.6569   -0.2840 H   0  0  0  0  0  0  0  0  0  0  0  0
    1.6095   -0.4182    0.1863 H   0  0  0  0  0  0  0  0  0  0  0  0
   -0.8557   -0.7906   -0.0148 H   0  0  0  0  0  0  0  0  0  0  0  0
   -6.4128    2.2418   -0.2073 H   0  0  0  0  0  0  0  0  0  0  0  0
   -8.5332    1.5004    0.2484 H   0  0  0  0  0  0  0  0  0  0  0  0
   -7.8499    2.1512    1.7688 H   0  0  0  0  0  0  0  0  0  0  0  0
   -9.3345    0.3496    2.9679 H   0  0  0  0  0  0  0  0  0  0  0  0
  -10.0410    1.8616    2.3733 H   0  0  0  0  0  0  0  0  0  0  0  0
   -9.7636   -1.7245    1.6571 H   0  0  0  0  0  0  0  0  0  0  0  0
   -9.2669   -1.0055    0.1086 H   0  0  0  0  0  0  0  0  0  0  0  0
  -11.4999   -1.3951   -0.8629 H   0  0  0  0  0  0  0  0  0  0  0  0
  -10.8322   -2.9006   -0.2206 H   0  0  0  0  0  0  0  0  0  0  0  0
  -13.7450   -1.0178    1.9369 H   0  0  0  0  0  0  0  0  0  0  0  0
  -13.2286   -0.2771    0.4161 H   0  0  0  0  0  0  0  0  0  0  0  0
  -11.5689   -0.5766    2.9886 H   0  0  0  0  0  0  0  0  0  0  0  0
  -12.2527    0.9357    2.3619 H   0  0  0  0  0  0  0  0  0  0  0  0
   -5.5430   -1.4972    1.7971 H   0  0  0  0  0  0  0  0  0  0  0  0
   -3.1864   -1.4060    1.0136 H   0  0  0  0  0  0  0  0  0  0  0  0
    1.1282    2.0167   -3.3372 H   0  0  0  0  0  0  0  0  0  0  0  0
    3.5145    1.7943   -3.8145 H   0  0  0  0  0  0  0  0  0  0  0  0
  1  2  1  0
  2  3  1  0
  2  4  1  0
  2  5  1  0
  5  6  2  0
  6  7  1  0
  7  8  1  0
  8  9  1  0
  9 10  2  0
  9 11  1  0
 11 12  1  0
 12 13  1  0
 13 14  2  0
 14 15  1  0
 15 16  1  0
 16 17  2  0
 17 18  1  0
 18 19  1  0
 19 20  2  0
 19 21  1  0
 21 22  1  0
 22 23  2  0
 23 24  1  0
 24 25  1  0
 25 26  1  0
 26 27  1  0
 27 28  1  0
 28 29  1  0
 29 30  1  0
 30 31  1  0
 31 32  1  0
 32 33  1  0
 24 34  2  0
 34 35  1  0
 35 36  2  0
 15 37  2  0
 37 38  1  0
  7 39  2  0
 39 40  1  0
 40  5  1  0
 38 12  2  0
 20 16  1  0
 36 22  1  0
 36 18  1  0
 33 28  1  0
  1 41  1  0
  1 42  1  0
  1 43  1  0
  3 44  1  0
  3 45  1  0
  3 46  1  0
  4 47  1  0
  4 48  1  0
  4 49  1  0
  6 50  1  0
  8 51  1  0
 11 52  1  0
 13 53  1  0
 14 54  1  0
 17 55  1  0
 23 56  1  0
 26 57  1  0
 26 58  1  0
 27 59  1  0
 27 60  1  0
 29 61  1  0
 29 62  1  0
 30 63  1  0
 30 64  1  0
 32 65  1  0
 32 66  1  0
 33 67  1  0
 33 68  1  0
 34 69  1  0
 35 70  1  0
 37 71  1  0
 38 72  1  0
M  END
$$$$
