
     RDKit          3D

 57 61  0  0  0  0  0  0  0  0999 V2000
   -3.9529    2.0415    2.4320 N   0  0  0  0  0  0  0  0  0  0  0  0
   -4.3172    0.9341    1.5227 C   0  0  0  0  0  0  0  0  0  0  0  0
   -3.6727    1.1573    0.1360 C   0  0  0  0  0  0  0  0  0  0  0  0
   -2.2455    1.1778    0.2982 O   0  0  0  0  0  0  0  0  0  0  0  0
   -1.5038    1.3770   -0.8302 C   0  0  0  0  0  0  0  0  0  0  0  0
   -1.9749    1.5491   -2.1241 C   0  0  0  0  0  0  0  0  0  0  0  0
   -1.1772    1.7434   -3.2012 N   0  0  0  0  0  0  0  0  0  0  0  0
    0.1572    1.7647   -2.9712 C   0  0  0  0  0  0  0  0  0  0  0  0
    0.7513    1.6059   -1.7191 C   0  0  0  0  0  0  0  0  0  0  0  0
    2.2106    1.6421   -1.5397 C   0  0  0  0  0  0  0  0  0  0  0  0
    2.9726    2.7267   -2.0427 C   0  0  0  0  0  0  0  0  0  0  0  0
    4.3609    2.7863   -1.8845 C   0  0  0  0  0  0  0  0  0  0  0  0
    4.9671    1.7446   -1.2166 C   0  0  0  0  0  0  0  0  0  0  0  0
    4.2530    0.6599   -0.7065 C   0  0  0  0  0  0  0  0  0  0  0  0
    2.8758    0.5990   -0.8621 C   0  0  0  0  0  0  0  0  0  0  0  0
    5.2437   -0.2321   -0.0704 C   0  0  0  0  0  0  0  0  0  0  0  0
    4.9115   -1.3868    0.5301 C   0  0  0  0  0  0  0  0  0  0  0  0
    5.7404   -2.3411    1.1801 C   0  0  0  0  0  0  0  0  0  0  0  0
    5.4085   -3.5344    1.8024 C   0  0  0  0  0  0  0  0  0  0  0  0
    6.5947   -4.1246    2.2985 C   0  0  0  0  0  0  0  0  0  0  0  0
    7.6288   -3.2821    1.9706 C   0  0  0  0  0  0  0  0  0  0  0  0
    7.1042   -2.2086    1.2957 N   0  0  0  0  0  0  0  0  0  0  0  0
    6.5860    0.4357   -0.2584 C   0  0  0  0  0  0  0  0  0  0  0  0
    7.6806    0.0524    0.1089 O   0  0  0  0  0  0  0  0  0  0  0  0
    6.3229    1.6056   -0.9507 N   0  0  0  0  0  0  0  0  0  0  0  0
   -0.1214    1.4078   -0.6398 C   0  0  0  0  0  0  0  0  0  0  0  0
   -5.8528    0.8322    1.4413 C   0  0  0  0  0  0  0  0  0  0  0  0
   -6.3423   -0.3583    0.6497 C   0  0  0  0  0  0  0  0  0  0  0  0
   -6.1731   -1.6599    1.1416 C   0  0  0  0  0  0  0  0  0  0  0  0
   -6.6131   -2.7586    0.4018 C   0  0  0  0  0  0  0  0  0  0  0  0
   -7.2283   -2.5674   -0.8336 C   0  0  0  0  0  0  0  0  0  0  0  0
   -7.4076   -1.2776   -1.3292 C   0  0  0  0  0  0  0  0  0  0  0  0
   -6.9686   -0.1773   -0.5912 C   0  0  0  0  0  0  0  0  0  0  0  0
   -4.1820    1.7821    3.3908 H   0  0  0  0  0  0  0  0  0  0  0  0
   -2.9367    2.1533    2.4016 H   0  0  0  0  0  0  0  0  0  0  0  0
   -3.8957    0.0171    1.9533 H   0  0  0  0  0  0  0  0  0  0  0  0
   -3.9403    0.3336   -0.5353 H   0  0  0  0  0  0  0  0  0  0  0  0
   -4.0175    2.1097   -0.2868 H   0  0  0  0  0  0  0  0  0  0  0  0
   -3.0322    1.5386   -2.3651 H   0  0  0  0  0  0  0  0  0  0  0  0
    0.7601    1.9099   -3.8647 H   0  0  0  0  0  0  0  0  0  0  0  0
    2.4735    3.5488   -2.5553 H   0  0  0  0  0  0  0  0  0  0  0  0
    4.9285    3.6248   -2.2718 H   0  0  0  0  0  0  0  0  0  0  0  0
    2.3132   -0.2468   -0.4774 H   0  0  0  0  0  0  0  0  0  0  0  0
    3.8579   -1.6601    0.5363 H   0  0  0  0  0  0  0  0  0  0  0  0
    4.4092   -3.9409    1.8905 H   0  0  0  0  0  0  0  0  0  0  0  0
    6.6834   -5.0601    2.8348 H   0  0  0  0  0  0  0  0  0  0  0  0
    8.6927   -3.3458    2.1543 H   0  0  0  0  0  0  0  0  0  0  0  0
    7.6549   -1.4335    0.9375 H   0  0  0  0  0  0  0  0  0  0  0  0
    7.0468    2.2561   -1.2150 H   0  0  0  0  0  0  0  0  0  0  0  0
    0.2719    1.2876    0.3673 H   0  0  0  0  0  0  0  0  0  0  0  0
   -6.2654    1.7568    1.0156 H   0  0  0  0  0  0  0  0  0  0  0  0
   -6.2770    0.7560    2.4520 H   0  0  0  0  0  0  0  0  0  0  0  0
   -5.7006   -1.8277    2.1069 H   0  0  0  0  0  0  0  0  0  0  0  0
   -6.4781   -3.7646    0.7908 H   0  0  0  0  0  0  0  0  0  0  0  0
   -7.5719   -3.4235   -1.4084 H   0  0  0  0  0  0  0  0  0  0  0  0
   -7.8922   -1.1283   -2.2907 H   0  0  0  0  0  0  0  0  0  0  0  0
   -7.1207    0.8222   -0.9929 H   0  0  0  0  0  0  0  0  0  0  0  0
  1  2  1  0
  2  3  1  0
  3  4  1  0
  4  5  1  0
  5  6  1  0
  6  7  2  0
  7  8  1  0
  8  9  2  0
  9 10  1  0
 10 11  1  0
 11 12  2  0
 12 13  1  0
 13 14  2  0
 14 15  1  0
 14 16  1  0
 16 17  2  3
 17 18  1  0
 18 19  2  0
 19 20  1  0
 20 21  2  0
 21 22  1  0
 16 23  1  0
 23 24  2  0
 23 25  1  0
  9 26  1  0
  2 27  1  0
 27 28  1  0
 28 29  2  0
 29 30  1  0
 30 31  2  0
 31 32  1  0
 32 33  2  0
 26  5  2  0
 33 28  1  0
 15 10  2  0
 22 18  1  0
 25 13  1  0
  1 34  1  0
  1 35  1  0
  2 36  1  0
  3 37  1  0
  3 38  1  0
  6 39  1  0
  8 40  1  0
 11 41  1  0
 12 42  1  0
 15 43  1  0
 17 44  1  0
 19 45  1  0
 20 46  1  0
 21 47  1  0
 22 48  1  0
 25 49  1  0
 26 50  1  0
 27 51  1  0
 27 52  1  0
 29 53  1  0
 30 54  1  0
 31 55  1  0
 32 56  1  0
 33 57  1  0
M  END
$$$$
