CHRNA7_encenicline__hybrid_B_face_seed2207_ex32__pose01
     RDKit          3D

 38 41  0  0  0  0  0  0  0  0999 V2000
  144.0860  141.0820   95.6300 O   0  0  0  0  0  0  0  0  0  0  0  0
  143.0400  140.9350   95.0950 C   0  0  0  0  0  0  0  0  0  0  0  0
  142.9910  140.4390   93.7330 N   0  0  0  0  0  0  0  0  0  0  0  0
  144.2540  140.1250   93.0260 C   0  0  1  0  0  0  0  0  0  0  0  0
  144.7040  138.6910   93.3670 C   0  0  0  0  0  0  0  0  0  0  0  0
  144.8180  137.9090   92.2150 N   0  0  0  0  0  0  0  0  0  0  0  0
  145.7130  138.4780   91.3350 C   0  0  0  0  0  0  0  0  0  0  0  0
  145.2810  139.8550   90.9280 C   0  0  0  0  0  0  0  0  0  0  0  0
  144.0520  140.2090   91.5820 C   0  0  0  0  0  0  0  0  0  0  0  0
  143.0310  139.2360   91.2030 C   0  0  0  0  0  0  0  0  0  0  0  0
  143.5520  137.7990   91.5880 C   0  0  0  0  0  0  0  0  0  0  0  0
  141.7490  141.2670   95.8510 C   0  0  0  0  0  0  0  0  0  0  0  0
  141.5310  142.3750   96.5950 C   0  0  0  0  0  0  0  0  0  0  0  0
  140.2630  142.5500   97.2460 C   0  0  0  0  0  0  0  0  0  0  0  0
  139.8860  143.6100   98.0280 C   0  0  0  0  0  0  0  0  0  0  0  0
  138.6120  143.6390   98.5980 C   0  0  0  0  0  0  0  0  0  0  0  0
  137.7170  142.5800   98.3690 C   0  0  0  0  0  0  0  0  0  0  0  0
  138.0950  141.4960   97.5710 C   0  0  0  0  0  0  0  0  0  0  0  0
  136.9540  140.1570   97.2830 Cl  0  0  0  0  0  0  0  0  0  0  0  0
  139.3490  141.4660   97.0090 C   0  0  0  0  0  0  0  0  0  0  0  0
  140.2840  140.3310   95.9400 S   0  0  0  0  0  0  0  0  0  0  0  0
  142.1250  140.3120   93.2820 H   0  0  0  0  0  0  0  0  0  0  0  0
  145.0193  140.8485   93.3436 H   0  0  0  0  0  0  0  0  0  0  0  0
  145.6810  138.7319   93.8708 H   0  0  0  0  0  0  0  0  0  0  0  0
  143.9475  138.2357   94.0231 H   0  0  0  0  0  0  0  0  0  0  0  0
  146.6992  138.5407   91.8183 H   0  0  0  0  0  0  0  0  0  0  0  0
  145.7589  137.8493   90.4335 H   0  0  0  0  0  0  0  0  0  0  0  0
  146.0618  140.5773   91.2085 H   0  0  0  0  0  0  0  0  0  0  0  0
  145.1232  139.8719   89.8395 H   0  0  0  0  0  0  0  0  0  0  0  0
  143.7433  141.2251   91.2951 H   0  0  0  0  0  0  0  0  0  0  0  0
  142.0956  139.4493   91.7410 H   0  0  0  0  0  0  0  0  0  0  0  0
  142.8358  139.2920   90.1219 H   0  0  0  0  0  0  0  0  0  0  0  0
  142.8404  137.3237   92.2791 H   0  0  0  0  0  0  0  0  0  0  0  0
  143.6444  137.1863   90.6791 H   0  0  0  0  0  0  0  0  0  0  0  0
  142.3184  143.1359   96.7007 H   0  0  0  0  0  0  0  0  0  0  0  0
  140.5874  144.4383   98.2067 H   0  0  0  0  0  0  0  0  0  0  0  0
  138.3090  144.4899   99.2258 H   0  0  0  0  0  0  0  0  0  0  0  0
  136.7139  142.6041   98.8199 H   0  0  0  0  0  0  0  0  0  0  0  0
  1  2  2  0
  2  3  1  0
  3  4  1  0
  4  5  1  0
  5  6  1  0
  6  7  1  0
  7  8  1  0
  8  9  1  0
  9 10  1  0
 10 11  1  0
  2 12  1  0
 12 13  2  0
 13 14  1  0
 14 15  2  0
 15 16  1  0
 16 17  2  0
 17 18  1  0
 18 19  1  0
 18 20  2  0
 20 21  1  0
  9  4  1  0
 21 12  1  0
 11  6  1  0
 20 14  1  0
  3 22  1  0
  4 23  1  1
  5 24  1  0
  5 25  1  0
  7 26  1  0
  7 27  1  0
  8 28  1  0
  8 29  1  0
  9 30  1  0
 10 31  1  0
 10 32  1  0
 11 33  1  0
 11 34  1  0
 13 35  1  0
 15 36  1  0
 16 37  1  0
 17 38  1  0
M  END
>  <meeko>  (1)
{"is_sidechain": false}

>  <source_group>  (1)
CHRFAM7A at B face

>  <source_system>  (1)
CHRNA7_encenicline

>  <source_run>  (1)
hybrid_B_face_seed2207_ex32

>  <source_seed>  (1)
2207

>  <vina_pose_rank>  (1)
1

>  <vina_affinity_kcal_mol>  (1)
-6.2169999999999996

>  <vina_rmsd_to_crystal_angstrom>  (1)
8.6356000000000002

$$$$
CHRNA7_encenicline__hybrid_B_face_seed2207_ex32__pose02
     RDKit          3D

 38 41  0  0  0  0  0  0  0  0999 V2000
  146.4530  144.6110   93.6680 O   0  0  0  0  0  0  0  0  0  0  0  0
  146.5860  143.6030   94.2750 C   0  0  0  0  0  0  0  0  0  0  0  0
  147.8750  143.2730   94.8490 N   0  0  0  0  0  0  0  0  0  0  0  0
  149.0140  144.2010   94.6640 C   0  0  1  0  0  0  0  0  0  0  0  0
  149.4140  144.8180   96.0190 C   0  0  0  0  0  0  0  0  0  0  0  0
  150.7480  144.5380   96.3290 N   0  0  0  0  0  0  0  0  0  0  0  0
  151.5800  145.0170   95.3400 C   0  0  0  0  0  0  0  0  0  0  0  0
  151.2650  144.3960   94.0110 C   0  0  0  0  0  0  0  0  0  0  0  0
  150.1670  143.4790   94.1340 C   0  0  0  0  0  0  0  0  0  0  0  0
  150.5400  142.4410   95.0920 C   0  0  0  0  0  0  0  0  0  0  0  0
  150.9260  143.1380   96.4520 C   0  0  0  0  0  0  0  0  0  0  0  0
  145.3890  142.6610   94.4510 C   0  0  0  0  0  0  0  0  0  0  0  0
  144.3250  142.8760   95.2580 C   0  0  0  0  0  0  0  0  0  0  0  0
  143.2750  141.8990   95.3160 C   0  0  0  0  0  0  0  0  0  0  0  0
  142.1370  141.9660   96.0760 C   0  0  0  0  0  0  0  0  0  0  0  0
  141.2030  140.9320   96.0280 C   0  0  0  0  0  0  0  0  0  0  0  0
  141.4290  139.8190   95.2000 C   0  0  0  0  0  0  0  0  0  0  0  0
  142.5880  139.7440   94.4210 C   0  0  0  0  0  0  0  0  0  0  0  0
  142.8680  138.3310   93.3710 Cl  0  0  0  0  0  0  0  0  0  0  0  0
  143.5100  140.7620   94.4670 C   0  0  0  0  0  0  0  0  0  0  0  0
  145.1080  141.1260   93.6810 S   0  0  0  0  0  0  0  0  0  0  0  0
  147.9930  142.4380   95.3570 H   0  0  0  0  0  0  0  0  0  0  0  0
  148.7074  144.9906   93.9622 H   0  0  0  0  0  0  0  0  0  0  0  0
  149.2784  145.9085   95.9705 H   0  0  0  0  0  0  0  0  0  0  0  0
  148.7760  144.3817   96.8017 H   0  0  0  0  0  0  0  0  0  0  0  0
  151.4550  146.1072   95.2642 H   0  0  0  0  0  0  0  0  0  0  0  0
  152.6163  144.7603   95.6051 H   0  0  0  0  0  0  0  0  0  0  0  0
  150.9976  145.1875   93.2955 H   0  0  0  0  0  0  0  0  0  0  0  0
  152.1495  143.8474   93.6552 H   0  0  0  0  0  0  0  0  0  0  0  0
  149.9257  143.0362   93.1564 H   0  0  0  0  0  0  0  0  0  0  0  0
  149.6914  141.7595   95.2511 H   0  0  0  0  0  0  0  0  0  0  0  0
  151.3919  141.8601   94.7088 H   0  0  0  0  0  0  0  0  0  0  0  0
  150.2812  142.7552   97.2568 H   0  0  0  0  0  0  0  0  0  0  0  0
  151.9773  142.9204   96.6916 H   0  0  0  0  0  0  0  0  0  0  0  0
  144.2649  143.7917   95.8646 H   0  0  0  0  0  0  0  0  0  0  0  0
  141.9600  142.8365   96.7247 H   0  0  0  0  0  0  0  0  0  0  0  0
  140.2894  140.9873   96.6381 H   0  0  0  0  0  0  0  0  0  0  0  0
  140.6914  139.0037   95.1646 H   0  0  0  0  0  0  0  0  0  0  0  0
  1  2  2  0
  2  3  1  0
  3  4  1  0
  4  5  1  0
  5  6  1  0
  6  7  1  0
  7  8  1  0
  8  9  1  0
  9 10  1  0
 10 11  1  0
  2 12  1  0
 12 13  2  0
 13 14  1  0
 14 15  2  0
 15 16  1  0
 16 17  2  0
 17 18  1  0
 18 19  1  0
 18 20  2  0
 20 21  1  0
  9  4  1  0
 21 12  1  0
 11  6  1  0
 20 14  1  0
  3 22  1  0
  4 23  1  6
  5 24  1  0
  5 25  1  0
  7 26  1  0
  7 27  1  0
  8 28  1  0
  8 29  1  0
  9 30  1  0
 10 31  1  0
 10 32  1  0
 11 33  1  0
 11 34  1  0
 13 35  1  0
 15 36  1  0
 16 37  1  0
 17 38  1  0
M  END
>  <meeko>  (2)
{"is_sidechain": false}

>  <source_group>  (2)
CHRFAM7A at B face

>  <source_system>  (2)
CHRNA7_encenicline

>  <source_run>  (2)
hybrid_B_face_seed2207_ex32

>  <source_seed>  (2)
2207

>  <vina_pose_rank>  (2)
2

>  <vina_affinity_kcal_mol>  (2)
-5.883

>  <vina_rmsd_to_crystal_angstrom>  (2)
9.9059000000000008

$$$$
CHRNA7_encenicline__hybrid_B_face_seed2207_ex32__pose03
     RDKit          3D

 38 41  0  0  0  0  0  0  0  0999 V2000
  140.9990  141.2220   89.1050 O   0  0  0  0  0  0  0  0  0  0  0  0
  141.5310  140.2170   88.7760 C   0  0  0  0  0  0  0  0  0  0  0  0
  142.5920  139.6620   89.5940 N   0  0  0  0  0  0  0  0  0  0  0  0
  143.0000  140.3640   90.8320 C   0  0  1  0  0  0  0  0  0  0  0  0
  142.2470  139.7760   92.0420 C   0  0  0  0  0  0  0  0  0  0  0  0
  143.1370  139.2830   93.0000 N   0  0  0  0  0  0  0  0  0  0  0  0
  143.9850  140.2820   93.4260 C   0  0  0  0  0  0  0  0  0  0  0  0
  144.7840  140.8430   92.2870 C   0  0  0  0  0  0  0  0  0  0  0  0
  144.4320  140.1900   91.0570 C   0  0  0  0  0  0  0  0  0  0  0  0
  144.7040  138.7620   91.1990 C   0  0  0  0  0  0  0  0  0  0  0  0
  143.8990  138.2270   92.4430 C   0  0  0  0  0  0  0  0  0  0  0  0
  141.0880  139.5110   87.4890 C   0  0  0  0  0  0  0  0  0  0  0  0
  141.7960  139.4470   86.3380 C   0  0  0  0  0  0  0  0  0  0  0  0
  141.2500  138.7450   85.2120 C   0  0  0  0  0  0  0  0  0  0  0  0
  141.8370  138.5880   83.9840 C   0  0  0  0  0  0  0  0  0  0  0  0
  141.1780  137.8760   82.9810 C   0  0  0  0  0  0  0  0  0  0  0  0
  139.9120  137.3190   83.2300 C   0  0  0  0  0  0  0  0  0  0  0  0
  139.3080  137.4750   84.4820 C   0  0  0  0  0  0  0  0  0  0  0  0
  137.7030  136.7650   84.7930 Cl  0  0  0  0  0  0  0  0  0  0  0  0
  139.9550  138.1760   85.4710 C   0  0  0  0  0  0  0  0  0  0  0  0
  139.6100  138.6410   87.1950 S   0  0  0  0  0  0  0  0  0  0  0  0
  143.0370  138.8260   89.3280 H   0  0  0  0  0  0  0  0  0  0  0  0
  142.7624  141.4321   90.7194 H   0  0  0  0  0  0  0  0  0  0  0  0
  141.6294  140.5640   92.4978 H   0  0  0  0  0  0  0  0  0  0  0  0
  141.6179  138.9449   91.6905 H   0  0  0  0  0  0  0  0  0  0  0  0
  143.3893  141.0891   93.8773 H   0  0  0  0  0  0  0  0  0  0  0  0
  144.6825  139.8544   94.1613 H   0  0  0  0  0  0  0  0  0  0  0  0
  144.5792  141.9200   92.1968 H   0  0  0  0  0  0  0  0  0  0  0  0
  145.8530  140.6761   92.4856 H   0  0  0  0  0  0  0  0  0  0  0  0
  145.0073  140.6128   90.2202 H   0  0  0  0  0  0  0  0  0  0  0  0
  144.3829  138.2300   90.2913 H   0  0  0  0  0  0  0  0  0  0  0  0
  145.7814  138.5937   91.3436 H   0  0  0  0  0  0  0  0  0  0  0  0
  143.2260  137.4174   92.1241 H   0  0  0  0  0  0  0  0  0  0  0  0
  144.6013  137.8431   93.1976 H   0  0  0  0  0  0  0  0  0  0  0  0
  142.7821  139.9291   86.2659 H   0  0  0  0  0  0  0  0  0  0  0  0
  142.8281  139.0234   83.7887 H   0  0  0  0  0  0  0  0  0  0  0  0
  141.6496  137.7507   81.9951 H   0  0  0  0  0  0  0  0  0  0  0  0
  139.3943  136.7584   82.4377 H   0  0  0  0  0  0  0  0  0  0  0  0
  1  2  2  0
  2  3  1  0
  3  4  1  0
  4  5  1  0
  5  6  1  0
  6  7  1  0
  7  8  1  0
  8  9  1  0
  9 10  1  0
 10 11  1  0
  2 12  1  0
 12 13  2  0
 13 14  1  0
 14 15  2  0
 15 16  1  0
 16 17  2  0
 17 18  1  0
 18 19  1  0
 18 20  2  0
 20 21  1  0
  9  4  1  0
 21 12  1  0
 11  6  1  0
 20 14  1  0
  3 22  1  0
  4 23  1  6
  5 24  1  0
  5 25  1  0
  7 26  1  0
  7 27  1  0
  8 28  1  0
  8 29  1  0
  9 30  1  0
 10 31  1  0
 10 32  1  0
 11 33  1  0
 11 34  1  0
 13 35  1  0
 15 36  1  0
 16 37  1  0
 17 38  1  0
M  END
>  <meeko>  (3)
{"is_sidechain": false}

>  <source_group>  (3)
CHRFAM7A at B face

>  <source_system>  (3)
CHRNA7_encenicline

>  <source_run>  (3)
hybrid_B_face_seed2207_ex32

>  <source_seed>  (3)
2207

>  <vina_pose_rank>  (3)
3

>  <vina_affinity_kcal_mol>  (3)
-5.7519999999999998

>  <vina_rmsd_to_crystal_angstrom>  (3)
7.2922000000000002

$$$$
CHRNA7_encenicline__hybrid_B_face_seed2207_ex32__pose04
     RDKit          3D

 38 41  0  0  0  0  0  0  0  0999 V2000
  146.7890  144.2130   93.4820 O   0  0  0  0  0  0  0  0  0  0  0  0
  146.3030  143.9090   94.5190 C   0  0  0  0  0  0  0  0  0  0  0  0
  146.7160  144.5850   95.7330 N   0  0  0  0  0  0  0  0  0  0  0  0
  147.7450  145.6470   95.6620 C   0  0  1  0  0  0  0  0  0  0  0  0
  147.0690  147.0260   95.5310 C   0  0  0  0  0  0  0  0  0  0  0  0
  147.4380  147.8720   96.5800 N   0  0  0  0  0  0  0  0  0  0  0  0
  148.8070  148.0300   96.6110 C   0  0  0  0  0  0  0  0  0  0  0  0
  149.5050  146.7160   96.7980 C   0  0  0  0  0  0  0  0  0  0  0  0
  148.5490  145.6470   96.8800 C   0  0  0  0  0  0  0  0  0  0  0  0
  147.6650  145.9060   98.0140 C   0  0  0  0  0  0  0  0  0  0  0  0
  147.0030  147.3220   97.8110 C   0  0  0  0  0  0  0  0  0  0  0  0
  145.2390  142.8070   94.5630 C   0  0  0  0  0  0  0  0  0  0  0  0
  144.1280  142.8100   95.3360 C   0  0  0  0  0  0  0  0  0  0  0  0
  143.2180  141.7020   95.2680 C   0  0  0  0  0  0  0  0  0  0  0  0
  142.0560  141.5540   95.9780 C   0  0  0  0  0  0  0  0  0  0  0  0
  141.2720  140.4140   95.8040 C   0  0  0  0  0  0  0  0  0  0  0  0
  141.6740  139.4160   94.9000 C   0  0  0  0  0  0  0  0  0  0  0  0
  142.8580  139.5610   94.1710 C   0  0  0  0  0  0  0  0  0  0  0  0
  143.3610  138.2920   93.0240 Cl  0  0  0  0  0  0  0  0  0  0  0  0
  143.6320  140.6830   94.3410 C   0  0  0  0  0  0  0  0  0  0  0  0
  145.1930  141.3200   93.6600 S   0  0  0  0  0  0  0  0  0  0  0  0
  146.3150  144.3410   96.5980 H   0  0  0  0  0  0  0  0  0  0  0  0
  148.3837  145.4526   94.7878 H   0  0  0  0  0  0  0  0  0  0  0  0
  147.3707  147.4842   94.5776 H   0  0  0  0  0  0  0  0  0  0  0  0
  145.9788  146.8839   95.5656 H   0  0  0  0  0  0  0  0  0  0  0  0
  149.1371  148.4789   95.6626 H   0  0  0  0  0  0  0  0  0  0  0  0
  149.0613  148.6812   97.4602 H   0  0  0  0  0  0  0  0  0  0  0  0
  150.1757  146.5375   95.9446 H   0  0  0  0  0  0  0  0  0  0  0  0
  150.0830  146.7496   97.7333 H   0  0  0  0  0  0  0  0  0  0  0  0
  149.0627  144.6819   97.0009 H   0  0  0  0  0  0  0  0  0  0  0  0
  146.8836  145.1332   98.0608 H   0  0  0  0  0  0  0  0  0  0  0  0
  148.2371  145.8858   98.9533 H   0  0  0  0  0  0  0  0  0  0  0  0
  145.9081  147.2172   97.7997 H   0  0  0  0  0  0  0  0  0  0  0  0
  147.2980  147.9875   98.6357 H   0  0  0  0  0  0  0  0  0  0  0  0
  143.9241  143.6545   96.0107 H   0  0  0  0  0  0  0  0  0  0  0  0
  141.7411  142.3349   96.6858 H   0  0  0  0  0  0  0  0  0  0  0  0
  140.3389  140.2959   96.3744 H   0  0  0  0  0  0  0  0  0  0  0  0
  141.0545  138.5170   94.7655 H   0  0  0  0  0  0  0  0  0  0  0  0
  1  2  2  0
  2  3  1  0
  3  4  1  0
  4  5  1  0
  5  6  1  0
  6  7  1  0
  7  8  1  0
  8  9  1  0
  9 10  1  0
 10 11  1  0
  2 12  1  0
 12 13  2  0
 13 14  1  0
 14 15  2  0
 15 16  1  0
 16 17  2  0
 17 18  1  0
 18 19  1  0
 18 20  2  0
 20 21  1  0
  9  4  1  0
 21 12  1  0
 11  6  1  0
 20 14  1  0
  3 22  1  0
  4 23  1  6
  5 24  1  0
  5 25  1  0
  7 26  1  0
  7 27  1  0
  8 28  1  0
  8 29  1  0
  9 30  1  0
 10 31  1  0
 10 32  1  0
 11 33  1  0
 11 34  1  0
 13 35  1  0
 15 36  1  0
 16 37  1  0
 17 38  1  0
M  END
>  <meeko>  (4)
{"is_sidechain": false}

>  <source_group>  (4)
CHRFAM7A at B face

>  <source_system>  (4)
CHRNA7_encenicline

>  <source_run>  (4)
hybrid_B_face_seed2207_ex32

>  <source_seed>  (4)
2207

>  <vina_pose_rank>  (4)
4

>  <vina_affinity_kcal_mol>  (4)
-5.7480000000000002

>  <vina_rmsd_to_crystal_angstrom>  (4)
9.7666000000000004

$$$$
CHRNA7_encenicline__hybrid_B_face_seed2207_ex32__pose05
     RDKit          3D

 38 41  0  0  0  0  0  0  0  0999 V2000
  146.0290  144.8430   96.0390 O   0  0  0  0  0  0  0  0  0  0  0  0
  146.1550  144.2330   95.0320 C   0  0  0  0  0  0  0  0  0  0  0  0
  147.1430  144.6500   94.0560 N   0  0  0  0  0  0  0  0  0  0  0  0
  147.9820  145.8380   94.3310 C   0  0  1  0  0  0  0  0  0  0  0  0
  149.3400  145.3990   94.9140 C   0  0  0  0  0  0  0  0  0  0  0  0
  150.4000  145.8460   94.1220 N   0  0  0  0  0  0  0  0  0  0  0  0
  150.3680  147.2190   94.0080 C   0  0  0  0  0  0  0  0  0  0  0  0
  149.0860  147.6880   93.3870 C   0  0  0  0  0  0  0  0  0  0  0  0
  148.2340  146.5710   93.0930 C   0  0  0  0  0  0  0  0  0  0  0  0
  148.9380  145.6840   92.1700 C   0  0  0  0  0  0  0  0  0  0  0  0
  150.3070  145.2690   92.8310 C   0  0  0  0  0  0  0  0  0  0  0  0
  145.2730  143.0070   94.7730 C   0  0  0  0  0  0  0  0  0  0  0  0
  145.5580  141.9910   93.9250 C   0  0  0  0  0  0  0  0  0  0  0  0
  144.6310  140.9040   93.7890 C   0  0  0  0  0  0  0  0  0  0  0  0
  144.7720  139.8070   92.9800 C   0  0  0  0  0  0  0  0  0  0  0  0
  143.7790  138.8270   92.9540 C   0  0  0  0  0  0  0  0  0  0  0  0
  142.6340  138.9650   93.7580 C   0  0  0  0  0  0  0  0  0  0  0  0
  142.4850  140.0820   94.5860 C   0  0  0  0  0  0  0  0  0  0  0  0
  141.0320  140.2500   95.6050 Cl  0  0  0  0  0  0  0  0  0  0  0  0
  143.4620  141.0490   94.6130 C   0  0  0  0  0  0  0  0  0  0  0  0
  143.7310  142.6220   95.4830 S   0  0  0  0  0  0  0  0  0  0  0  0
  147.2550  144.1470   93.2170 H   0  0  0  0  0  0  0  0  0  0  0  0
  147.4491  146.4792   95.0486 H   0  0  0  0  0  0  0  0  0  0  0  0
  149.4476  145.8168   95.9259 H   0  0  0  0  0  0  0  0  0  0  0  0
  149.3669  144.2997   94.9423 H   0  0  0  0  0  0  0  0  0  0  0  0
  150.4638  147.6634   95.0097 H   0  0  0  0  0  0  0  0  0  0  0  0
  151.2004  147.5316   93.3604 H   0  0  0  0  0  0  0  0  0  0  0  0
  148.5704  148.3629   94.0860 H   0  0  0  0  0  0  0  0  0  0  0  0
  149.3160  148.2173   92.4505 H   0  0  0  0  0  0  0  0  0  0  0  0
  147.2877  146.9176   92.6522 H   0  0  0  0  0  0  0  0  0  0  0  0
  148.3301  144.7874   91.9791 H   0  0  0  0  0  0  0  0  0  0  0  0
  149.1186  146.1974   91.2141 H   0  0  0  0  0  0  0  0  0  0  0  0
  150.3572  144.1733   92.9142 H   0  0  0  0  0  0  0  0  0  0  0  0
  151.1396  145.6269   92.2076 H   0  0  0  0  0  0  0  0  0  0  0  0
  146.4926  141.9986   93.3449 H   0  0  0  0  0  0  0  0  0  0  0  0
  145.6680  139.6990   92.3511 H   0  0  0  0  0  0  0  0  0  0  0  0
  143.8921  137.9465   92.3044 H   0  0  0  0  0  0  0  0  0  0  0  0
  141.8523  138.1914   93.7357 H   0  0  0  0  0  0  0  0  0  0  0  0
  1  2  2  0
  2  3  1  0
  3  4  1  0
  4  5  1  0
  5  6  1  0
  6  7  1  0
  7  8  1  0
  8  9  1  0
  9 10  1  0
 10 11  1  0
  2 12  1  0
 12 13  2  0
 13 14  1  0
 14 15  2  0
 15 16  1  0
 16 17  2  0
 17 18  1  0
 18 19  1  0
 18 20  2  0
 20 21  1  0
  9  4  1  0
 21 12  1  0
 11  6  1  0
 20 14  1  0
  3 22  1  0
  4 23  1  1
  5 24  1  0
  5 25  1  0
  7 26  1  0
  7 27  1  0
  8 28  1  0
  8 29  1  0
  9 30  1  0
 10 31  1  0
 10 32  1  0
 11 33  1  0
 11 34  1  0
 13 35  1  0
 15 36  1  0
 16 37  1  0
 17 38  1  0
M  END
>  <meeko>  (5)
{"is_sidechain": false}

>  <source_group>  (5)
CHRFAM7A at B face

>  <source_system>  (5)
CHRNA7_encenicline

>  <source_run>  (5)
hybrid_B_face_seed2207_ex32

>  <source_seed>  (5)
2207

>  <vina_pose_rank>  (5)
5

>  <vina_affinity_kcal_mol>  (5)
-5.6699999999999999

>  <vina_rmsd_to_crystal_angstrom>  (5)
9.3599999999999994

$$$$
CHRNA7_encenicline__hybrid_B_face_seed2207_ex32__pose06
     RDKit          3D

 38 41  0  0  0  0  0  0  0  0999 V2000
  146.0370  145.2270   94.4660 O   0  0  0  0  0  0  0  0  0  0  0  0
  146.3240  144.0930   94.6510 C   0  0  0  0  0  0  0  0  0  0  0  0
  147.7180  143.7140   94.7780 N   0  0  0  0  0  0  0  0  0  0  0  0
  148.7670  144.7530   94.6700 C   0  0  1  0  0  0  0  0  0  0  0  0
  149.4070  144.9990   96.0500 C   0  0  0  0  0  0  0  0  0  0  0  0
  150.7840  144.7630   96.0190 N   0  0  0  0  0  0  0  0  0  0  0  0
  151.3880  145.5690   95.0800 C   0  0  0  0  0  0  0  0  0  0  0  0
  150.8370  145.3200   93.7070 C   0  0  0  0  0  0  0  0  0  0  0  0
  149.8150  144.3120   93.7530 C   0  0  0  0  0  0  0  0  0  0  0  0
  150.4020  143.0840   94.2840 C   0  0  0  0  0  0  0  0  0  0  0  0
  151.0270  143.4050   95.6950 C   0  0  0  0  0  0  0  0  0  0  0  0
  145.2160  143.0390   94.7590 C   0  0  0  0  0  0  0  0  0  0  0  0
  145.1510  141.8850   94.0560 C   0  0  0  0  0  0  0  0  0  0  0  0
  144.0480  140.9910   94.2670 C   0  0  0  0  0  0  0  0  0  0  0  0
  143.8380  139.7910   93.6410 C   0  0  0  0  0  0  0  0  0  0  0  0
  142.7110  139.0290   93.9530 C   0  0  0  0  0  0  0  0  0  0  0  0
  141.7930  139.4920   94.9100 C   0  0  0  0  0  0  0  0  0  0  0  0
  142.0030  140.7150   95.5540 C   0  0  0  0  0  0  0  0  0  0  0  0
  140.8350  141.2970   96.7690 Cl  0  0  0  0  0  0  0  0  0  0  0  0
  143.1110  141.4680   95.2480 C   0  0  0  0  0  0  0  0  0  0  0  0
  143.8080  143.0600   95.7820 S   0  0  0  0  0  0  0  0  0  0  0  0
  147.9640  142.7750   94.9350 H   0  0  0  0  0  0  0  0  0  0  0  0
  148.3024  145.6776   94.2968 H   0  0  0  0  0  0  0  0  0  0  0  0
  149.2287  146.0430   96.3470 H   0  0  0  0  0  0  0  0  0  0  0  0
  148.9516  144.3063   96.7730 H   0  0  0  0  0  0  0  0  0  0  0  0
  151.2163  146.6218   95.3488 H   0  0  0  0  0  0  0  0  0  0  0  0
  152.4636  145.3389   95.0677 H   0  0  0  0  0  0  0  0  0  0  0  0
  150.4080  146.2535   93.3138 H   0  0  0  0  0  0  0  0  0  0  0  0
  151.6510  144.9734   93.0533 H   0  0  0  0  0  0  0  0  0  0  0  0
  149.4004  144.1411   92.7486 H   0  0  0  0  0  0  0  0  0  0  0  0
  149.6232  142.3142   94.3884 H   0  0  0  0  0  0  0  0  0  0  0  0
  151.1788  142.7089   93.6015 H   0  0  0  0  0  0  0  0  0  0  0  0
  150.5666  142.7580   96.4562 H   0  0  0  0  0  0  0  0  0  0  0  0
  152.1113  143.2221   95.6670 H   0  0  0  0  0  0  0  0  0  0  0  0
  145.9370  141.6338   93.3286 H   0  0  0  0  0  0  0  0  0  0  0  0
  144.5575  139.4278   92.8924 H   0  0  0  0  0  0  0  0  0  0  0  0
  142.5417  138.0658   93.4494 H   0  0  0  0  0  0  0  0  0  0  0  0
  140.9053  138.8899   95.1537 H   0  0  0  0  0  0  0  0  0  0  0  0
  1  2  2  0
  2  3  1  0
  3  4  1  0
  4  5  1  0
  5  6  1  0
  6  7  1  0
  7  8  1  0
  8  9  1  0
  9 10  1  0
 10 11  1  0
  2 12  1  0
 12 13  2  0
 13 14  1  0
 14 15  2  0
 15 16  1  0
 16 17  2  0
 17 18  1  0
 18 19  1  0
 18 20  2  0
 20 21  1  0
  9  4  1  0
 21 12  1  0
 11  6  1  0
 20 14  1  0
  3 22  1  0
  4 23  1  6
  5 24  1  0
  5 25  1  0
  7 26  1  0
  7 27  1  0
  8 28  1  0
  8 29  1  0
  9 30  1  0
 10 31  1  0
 10 32  1  0
 11 33  1  0
 11 34  1  0
 13 35  1  0
 15 36  1  0
 16 37  1  0
 17 38  1  0
M  END
>  <meeko>  (6)
{"is_sidechain": false}

>  <source_group>  (6)
CHRFAM7A at B face

>  <source_system>  (6)
CHRNA7_encenicline

>  <source_run>  (6)
hybrid_B_face_seed2207_ex32

>  <source_seed>  (6)
2207

>  <vina_pose_rank>  (6)
6

>  <vina_affinity_kcal_mol>  (6)
-5.6100000000000003

>  <vina_rmsd_to_crystal_angstrom>  (6)
9.9031000000000002

$$$$
CHRNA7_encenicline__hybrid_B_face_seed2207_ex32__pose07
     RDKit          3D

 38 41  0  0  0  0  0  0  0  0999 V2000
  147.5590  138.5230   90.0830 O   0  0  0  0  0  0  0  0  0  0  0  0
  147.7670  138.3050   91.2290 C   0  0  0  0  0  0  0  0  0  0  0  0
  146.6720  138.3340   92.1780 N   0  0  0  0  0  0  0  0  0  0  0  0
  145.3030  138.6390   91.7020 C   0  0  1  0  0  0  0  0  0  0  0  0
  144.2660  137.9210   92.5870 C   0  0  0  0  0  0  0  0  0  0  0  0
  143.3850  138.8320   93.1760 N   0  0  0  0  0  0  0  0  0  0  0  0
  142.7360  139.5660   92.2080 C   0  0  0  0  0  0  0  0  0  0  0  0
  143.7070  140.3310   91.3580 C   0  0  0  0  0  0  0  0  0  0  0  0
  145.0550  140.0760   91.7820 C   0  0  0  0  0  0  0  0  0  0  0  0
  145.1840  140.4870   93.1780 C   0  0  0  0  0  0  0  0  0  0  0  0
  144.1050  139.7100   94.0240 C   0  0  0  0  0  0  0  0  0  0  0  0
  149.1940  137.9920   91.6940 C   0  0  0  0  0  0  0  0  0  0  0  0
  149.8820  138.6640   92.6450 C   0  0  0  0  0  0  0  0  0  0  0  0
  151.2150  138.2510   92.9770 C   0  0  0  0  0  0  0  0  0  0  0  0
  152.0390  138.8210   93.9110 C   0  0  0  0  0  0  0  0  0  0  0  0
  153.3180  138.3050   94.1220 C   0  0  0  0  0  0  0  0  0  0  0  0
  153.7620  137.2010   93.3760 C   0  0  0  0  0  0  0  0  0  0  0  0
  152.9260  136.6130   92.4210 C   0  0  0  0  0  0  0  0  0  0  0  0
  153.4940  135.2100   91.4790 Cl  0  0  0  0  0  0  0  0  0  0  0  0
  151.6660  137.1200   92.2120 C   0  0  0  0  0  0  0  0  0  0  0  0
  150.2550  136.7310   91.1330 S   0  0  0  0  0  0  0  0  0  0  0  0
  146.8360  138.1520   93.1310 H   0  0  0  0  0  0  0  0  0  0  0  0
  145.2137  138.2970   90.6603 H   0  0  0  0  0  0  0  0  0  0  0  0
  143.6919  137.2166   91.9671 H   0  0  0  0  0  0  0  0  0  0  0  0
  144.8010  137.3880   93.3868 H   0  0  0  0  0  0  0  0  0  0  0  0
  142.1601  138.8825   91.5667 H   0  0  0  0  0  0  0  0  0  0  0  0
  142.0710  140.2861   92.7073 H   0  0  0  0  0  0  0  0  0  0  0  0
  143.5926  140.0207   90.3089 H   0  0  0  0  0  0  0  0  0  0  0  0
  143.4991  141.4063   91.4599 H   0  0  0  0  0  0  0  0  0  0  0  0
  145.7671  140.6253   91.1486 H   0  0  0  0  0  0  0  0  0  0  0  0
  146.1915  140.2431   93.5460 H   0  0  0  0  0  0  0  0  0  0  0  0
  145.0283  141.5721   93.2697 H   0  0  0  0  0  0  0  0  0  0  0  0
  144.6055  139.1298   94.8132 H   0  0  0  0  0  0  0  0  0  0  0  0
  143.4106  140.4290   94.4833 H   0  0  0  0  0  0  0  0  0  0  0  0
  149.4228  139.5207   93.1599 H   0  0  0  0  0  0  0  0  0  0  0  0
  151.6921  139.6862   94.4951 H   0  0  0  0  0  0  0  0  0  0  0  0
  153.9787  138.7629   94.8728 H   0  0  0  0  0  0  0  0  0  0  0  0
  154.7713  136.7970   93.5434 H   0  0  0  0  0  0  0  0  0  0  0  0
  1  2  2  0
  2  3  1  0
  3  4  1  0
  4  5  1  0
  5  6  1  0
  6  7  1  0
  7  8  1  0
  8  9  1  0
  9 10  1  0
 10 11  1  0
  2 12  1  0
 12 13  2  0
 13 14  1  0
 14 15  2  0
 15 16  1  0
 16 17  2  0
 17 18  1  0
 18 19  1  0
 18 20  2  0
 20 21  1  0
  9  4  1  0
 21 12  1  0
 11  6  1  0
 20 14  1  0
  3 22  1  0
  4 23  1  6
  5 24  1  0
  5 25  1  0
  7 26  1  0
  7 27  1  0
  8 28  1  0
  8 29  1  0
  9 30  1  0
 10 31  1  0
 10 32  1  0
 11 33  1  0
 11 34  1  0
 13 35  1  0
 15 36  1  0
 16 37  1  0
 17 38  1  0
M  END
>  <meeko>  (7)
{"is_sidechain": false}

>  <source_group>  (7)
CHRFAM7A at B face

>  <source_system>  (7)
CHRNA7_encenicline

>  <source_run>  (7)
hybrid_B_face_seed2207_ex32

>  <source_seed>  (7)
2207

>  <vina_pose_rank>  (7)
7

>  <vina_affinity_kcal_mol>  (7)
-5.601

>  <vina_rmsd_to_crystal_angstrom>  (7)
6.4253

$$$$
CHRNA7_encenicline__hybrid_B_face_seed2207_ex32__pose08
     RDKit          3D

 38 41  0  0  0  0  0  0  0  0999 V2000
  146.8170  144.4460   93.5280 O   0  0  0  0  0  0  0  0  0  0  0  0
  146.3660  144.1430   94.5810 C   0  0  0  0  0  0  0  0  0  0  0  0
  146.8300  144.8090   95.7820 N   0  0  0  0  0  0  0  0  0  0  0  0
  147.8660  145.8610   95.6780 C   0  0  1  0  0  0  0  0  0  0  0  0
  147.2000  147.2500   95.6080 C   0  0  0  0  0  0  0  0  0  0  0  0
  147.6320  148.0710   96.6530 N   0  0  0  0  0  0  0  0  0  0  0  0
  149.0020  148.2140   96.6160 C   0  0  0  0  0  0  0  0  0  0  0  0
  149.6940  146.8890   96.7410 C   0  0  0  0  0  0  0  0  0  0  0  0
  148.7320  145.8290   96.8530 C   0  0  0  0  0  0  0  0  0  0  0  0
  147.9110  146.0750   98.0360 C   0  0  0  0  0  0  0  0  0  0  0  0
  147.2550  147.5010   97.8940 C   0  0  0  0  0  0  0  0  0  0  0  0
  145.2950  143.0500   94.6590 C   0  0  0  0  0  0  0  0  0  0  0  0
  145.2700  141.9120   93.9280 C   0  0  0  0  0  0  0  0  0  0  0  0
  144.1970  140.9770   94.1140 C   0  0  0  0  0  0  0  0  0  0  0  0
  144.0280  139.7860   93.4590 C   0  0  0  0  0  0  0  0  0  0  0  0
  142.9270  138.9790   93.7480 C   0  0  0  0  0  0  0  0  0  0  0  0
  141.9900  139.3880   94.7130 C   0  0  0  0  0  0  0  0  0  0  0  0
  142.1580  140.6020   95.3860 C   0  0  0  0  0  0  0  0  0  0  0  0
  140.9670  141.1150   96.6100 Cl  0  0  0  0  0  0  0  0  0  0  0  0
  143.2410  141.3990   95.1030 C   0  0  0  0  0  0  0  0  0  0  0  0
  143.8830  143.0000   95.6770 S   0  0  0  0  0  0  0  0  0  0  0  0
  146.4590  144.5640   96.6600 H   0  0  0  0  0  0  0  0  0  0  0  0
  148.4566  145.6767   94.7685 H   0  0  0  0  0  0  0  0  0  0  0  0
  147.4581  147.7237   94.6494 H   0  0  0  0  0  0  0  0  0  0  0  0
  146.1113  147.1190   95.6953 H   0  0  0  0  0  0  0  0  0  0  0  0
  149.2877  148.6783   95.6606 H   0  0  0  0  0  0  0  0  0  0  0  0
  149.3073  148.8454   97.4635 H   0  0  0  0  0  0  0  0  0  0  0  0
  150.3168  146.7202   95.8502 H   0  0  0  0  0  0  0  0  0  0  0  0
  150.3207  146.8983   97.6450 H   0  0  0  0  0  0  0  0  0  0  0  0
  149.2402  144.8564   96.9294 H   0  0  0  0  0  0  0  0  0  0  0  0
  147.1247  145.3093   98.1091 H   0  0  0  0  0  0  0  0  0  0  0  0
  148.5307  146.0311   98.9437 H   0  0  0  0  0  0  0  0  0  0  0  0
  146.1599  147.4071   97.9371 H   0  0  0  0  0  0  0  0  0  0  0  0
  147.5994  148.1472   98.7148 H   0  0  0  0  0  0  0  0  0  0  0  0
  146.0655  141.7049   93.1970 H   0  0  0  0  0  0  0  0  0  0  0  0
  144.7611  139.4653   92.7042 H   0  0  0  0  0  0  0  0  0  0  0  0
  142.7922  138.0230   93.2209 H   0  0  0  0  0  0  0  0  0  0  0  0
  141.1222  138.7511   94.9392 H   0  0  0  0  0  0  0  0  0  0  0  0
  1  2  2  0
  2  3  1  0
  3  4  1  0
  4  5  1  0
  5  6  1  0
  6  7  1  0
  7  8  1  0
  8  9  1  0
  9 10  1  0
 10 11  1  0
  2 12  1  0
 12 13  2  0
 13 14  1  0
 14 15  2  0
 15 16  1  0
 16 17  2  0
 17 18  1  0
 18 19  1  0
 18 20  2  0
 20 21  1  0
  9  4  1  0
 21 12  1  0
 11  6  1  0
 20 14  1  0
  3 22  1  0
  4 23  1  6
  5 24  1  0
  5 25  1  0
  7 26  1  0
  7 27  1  0
  8 28  1  0
  8 29  1  0
  9 30  1  0
 10 31  1  0
 10 32  1  0
 11 33  1  0
 11 34  1  0
 13 35  1  0
 15 36  1  0
 16 37  1  0
 17 38  1  0
M  END
>  <meeko>  (8)
{"is_sidechain": false}

>  <source_group>  (8)
CHRFAM7A at B face

>  <source_system>  (8)
CHRNA7_encenicline

>  <source_run>  (8)
hybrid_B_face_seed2207_ex32

>  <source_seed>  (8)
2207

>  <vina_pose_rank>  (8)
8

>  <vina_affinity_kcal_mol>  (8)
-5.577

>  <vina_rmsd_to_crystal_angstrom>  (8)
9.9710000000000001

$$$$
CHRNA7_encenicline__hybrid_B_face_seed2207_ex32__pose09
     RDKit          3D

 38 41  0  0  0  0  0  0  0  0999 V2000
  145.6690  138.2640   90.9750 O   0  0  0  0  0  0  0  0  0  0  0  0
  146.0760  138.6840   92.0050 C   0  0  0  0  0  0  0  0  0  0  0  0
  147.4590  138.4580   92.3790 N   0  0  0  0  0  0  0  0  0  0  0  0
  148.3450  137.7000   91.4670 C   0  0  1  0  0  0  0  0  0  0  0  0
  148.9540  138.6490   90.4160 C   0  0  0  0  0  0  0  0  0  0  0  0
  150.3500  138.6340   90.4680 N   0  0  0  0  0  0  0  0  0  0  0  0
  150.8230  137.3550   90.2640 C   0  0  0  0  0  0  0  0  0  0  0  0
  150.3030  136.4070   91.3030 C   0  0  0  0  0  0  0  0  0  0  0  0
  149.4390  137.0940   92.2220 C   0  0  0  0  0  0  0  0  0  0  0  0
  150.2030  138.1620   92.8610 C   0  0  0  0  0  0  0  0  0  0  0  0
  150.7850  139.0970   91.7340 C   0  0  0  0  0  0  0  0  0  0  0  0
  145.1360  139.4650   92.9300 C   0  0  0  0  0  0  0  0  0  0  0  0
  145.3960  140.6700   93.4880 C   0  0  0  0  0  0  0  0  0  0  0  0
  144.4130  141.2830   94.3350 C   0  0  0  0  0  0  0  0  0  0  0  0
  144.5210  142.4920   94.9700 C   0  0  0  0  0  0  0  0  0  0  0  0
  143.4750  142.9580   95.7670 C   0  0  0  0  0  0  0  0  0  0  0  0
  142.3100  142.1860   95.9190 C   0  0  0  0  0  0  0  0  0  0  0  0
  142.1940  140.9520   95.2730 C   0  0  0  0  0  0  0  0  0  0  0  0
  140.7120  139.9780   95.4680 Cl  0  0  0  0  0  0  0  0  0  0  0  0
  143.2230  140.4910   94.4870 C   0  0  0  0  0  0  0  0  0  0  0  0
  143.5470  139.0140   93.4790 S   0  0  0  0  0  0  0  0  0  0  0  0
  147.8050  138.8050   93.2320 H   0  0  0  0  0  0  0  0  0  0  0  0
  147.7478  136.9194   90.9731 H   0  0  0  0  0  0  0  0  0  0  0  0
  148.6291  138.3306   89.4145 H   0  0  0  0  0  0  0  0  0  0  0  0
  148.6092  139.6715   90.6297 H   0  0  0  0  0  0  0  0  0  0  0  0
  150.5015  137.0087   89.2707 H   0  0  0  0  0  0  0  0  0  0  0  0
  151.9206  137.3767   90.3335 H   0  0  0  0  0  0  0  0  0  0  0  0
  149.7394  135.6018   90.8090 H   0  0  0  0  0  0  0  0  0  0  0  0
  151.1537  135.9872   91.8599 H   0  0  0  0  0  0  0  0  0  0  0  0
  149.0456  136.3949   92.9747 H   0  0  0  0  0  0  0  0  0  0  0  0
  149.5460  138.7437   93.5243 H   0  0  0  0  0  0  0  0  0  0  0  0
  151.0214  137.7362   93.4600 H   0  0  0  0  0  0  0  0  0  0  0  0
  150.4291  140.1260   91.8907 H   0  0  0  0  0  0  0  0  0  0  0  0
  151.8842  139.0803   91.7737 H   0  0  0  0  0  0  0  0  0  0  0  0
  146.3534  141.1758   93.2939 H   0  0  0  0  0  0  0  0  0  0  0  0
  145.4329  143.0957   94.8515 H   0  0  0  0  0  0  0  0  0  0  0  0
  143.5618  143.9291   96.2763 H   0  0  0  0  0  0  0  0  0  0  0  0
  141.4867  142.5545   96.5486 H   0  0  0  0  0  0  0  0  0  0  0  0
  1  2  2  0
  2  3  1  0
  3  4  1  0
  4  5  1  0
  5  6  1  0
  6  7  1  0
  7  8  1  0
  8  9  1  0
  9 10  1  0
 10 11  1  0
  2 12  1  0
 12 13  2  0
 13 14  1  0
 14 15  2  0
 15 16  1  0
 16 17  2  0
 17 18  1  0
 18 19  1  0
 18 20  2  0
 20 21  1  0
  9  4  1  0
 21 12  1  0
 11  6  1  0
 20 14  1  0
  3 22  1  0
  4 23  1  6
  5 24  1  0
  5 25  1  0
  7 26  1  0
  7 27  1  0
  8 28  1  0
  8 29  1  0
  9 30  1  0
 10 31  1  0
 10 32  1  0
 11 33  1  0
 11 34  1  0
 13 35  1  0
 15 36  1  0
 16 37  1  0
 17 38  1  0
M  END
>  <meeko>  (9)
{"is_sidechain": false}

>  <source_group>  (9)
CHRFAM7A at B face

>  <source_system>  (9)
CHRNA7_encenicline

>  <source_run>  (9)
hybrid_B_face_seed2207_ex32

>  <source_seed>  (9)
2207

>  <vina_pose_rank>  (9)
9

>  <vina_affinity_kcal_mol>  (9)
-5.5140000000000002

>  <vina_rmsd_to_crystal_angstrom>  (9)
8.7156000000000002

$$$$
CHRNA7_encenicline__hybrid_B_face_seed2207_ex32__pose10
     RDKit          3D

 38 41  0  0  0  0  0  0  0  0999 V2000
  148.5010  137.6410   92.2890 O   0  0  0  0  0  0  0  0  0  0  0  0
  147.9600  138.1230   91.3520 C   0  0  0  0  0  0  0  0  0  0  0  0
  148.6680  138.2400   90.0920 N   0  0  0  0  0  0  0  0  0  0  0  0
  150.0650  137.7580   89.9940 C   0  0  1  0  0  0  0  0  0  0  0  0
  150.0930  136.3560   89.3560 C   0  0  0  0  0  0  0  0  0  0  0  0
  150.8690  136.3440   88.1930 N   0  0  0  0  0  0  0  0  0  0  0  0
  152.1560  136.7510   88.4720 C   0  0  0  0  0  0  0  0  0  0  0  0
  152.1810  138.1380   89.0410 C   0  0  0  0  0  0  0  0  0  0  0  0
  150.8470  138.6590   89.1520 C   0  0  0  0  0  0  0  0  0  0  0  0
  150.2470  138.6780   87.8200 C   0  0  0  0  0  0  0  0  0  0  0  0
  150.3010  137.2170   87.2330 C   0  0  0  0  0  0  0  0  0  0  0  0
  146.5130  138.6130   91.4820 C   0  0  0  0  0  0  0  0  0  0  0  0
  145.7120  138.9920   90.4600 C   0  0  0  0  0  0  0  0  0  0  0  0
  144.3730  139.4280   90.7370 C   0  0  0  0  0  0  0  0  0  0  0  0
  143.4410  139.8390   89.8210 C   0  0  0  0  0  0  0  0  0  0  0  0
  142.1730  140.2380   90.2460 C   0  0  0  0  0  0  0  0  0  0  0  0
  141.8520  140.2180   91.6140 C   0  0  0  0  0  0  0  0  0  0  0  0
  142.7980  139.7990   92.5540 C   0  0  0  0  0  0  0  0  0  0  0  0
  142.3840  139.7740   94.2880 Cl  0  0  0  0  0  0  0  0  0  0  0  0
  144.0480  139.4050   92.1380 C   0  0  0  0  0  0  0  0  0  0  0  0
  145.5680  138.8010   92.9310 S   0  0  0  0  0  0  0  0  0  0  0  0
  148.2250  138.6370   89.3080 H   0  0  0  0  0  0  0  0  0  0  0  0
  150.4919  137.7225   91.0072 H   0  0  0  0  0  0  0  0  0  0  0  0
  150.5171  135.6421   90.0775 H   0  0  0  0  0  0  0  0  0  0  0  0
  149.0635  136.0742   89.0901 H   0  0  0  0  0  0  0  0  0  0  0  0
  152.6005  136.0573   89.2009 H   0  0  0  0  0  0  0  0  0  0  0  0
  152.7295  136.7520   87.5333 H   0  0  0  0  0  0  0  0  0  0  0  0
  152.6439  138.1120   90.0385 H   0  0  0  0  0  0  0  0  0  0  0  0
  152.7627  138.7878   88.3706 H   0  0  0  0  0  0  0  0  0  0  0  0
  150.8653  139.6707   89.5835 H   0  0  0  0  0  0  0  0  0  0  0  0
  149.2016  139.0134   87.8876 H   0  0  0  0  0  0  0  0  0  0  0  0
  150.7975  139.3701   87.1659 H   0  0  0  0  0  0  0  0  0  0  0  0
  149.2820  136.8816   86.9896 H   0  0  0  0  0  0  0  0  0  0  0  0
  150.9164  137.2103   86.3213 H   0  0  0  0  0  0  0  0  0  0  0  0
  146.0839  138.9663   89.4251 H   0  0  0  0  0  0  0  0  0  0  0  0
  143.6921  139.8545   88.7502 H   0  0  0  0  0  0  0  0  0  0  0  0
  141.4249  140.5681   89.5102 H   0  0  0  0  0  0  0  0  0  0  0  0
  140.8520  140.5334   91.9465 H   0  0  0  0  0  0  0  0  0  0  0  0
  1  2  2  0
  2  3  1  0
  3  4  1  0
  4  5  1  0
  5  6  1  0
  6  7  1  0
  7  8  1  0
  8  9  1  0
  9 10  1  0
 10 11  1  0
  2 12  1  0
 12 13  2  0
 13 14  1  0
 14 15  2  0
 15 16  1  0
 16 17  2  0
 17 18  1  0
 18 19  1  0
 18 20  2  0
 20 21  1  0
  9  4  1  0
 21 12  1  0
 11  6  1  0
 20 14  1  0
  3 22  1  0
  4 23  1  1
  5 24  1  0
  5 25  1  0
  7 26  1  0
  7 27  1  0
  8 28  1  0
  8 29  1  0
  9 30  1  0
 10 31  1  0
 10 32  1  0
 11 33  1  0
 11 34  1  0
 13 35  1  0
 15 36  1  0
 16 37  1  0
 17 38  1  0
M  END
>  <meeko>  (10)
{"is_sidechain": false}

>  <source_group>  (10)
CHRFAM7A at B face

>  <source_system>  (10)
CHRNA7_encenicline

>  <source_run>  (10)
hybrid_B_face_seed2207_ex32

>  <source_seed>  (10)
2207

>  <vina_pose_rank>  (10)
10

>  <vina_affinity_kcal_mol>  (10)
-5.3650000000000002

>  <vina_rmsd_to_crystal_angstrom>  (10)
8.5693999999999999

$$$$
CHRNA7_encenicline__hybrid_B_face_seed2207_ex32__pose11
     RDKit          3D

 38 41  0  0  0  0  0  0  0  0999 V2000
  151.5830  136.3250   87.3840 O   0  0  0  0  0  0  0  0  0  0  0  0
  150.8190  136.2260   88.2830 C   0  0  0  0  0  0  0  0  0  0  0  0
  149.5060  135.6540   88.0540 N   0  0  0  0  0  0  0  0  0  0  0  0
  149.1360  135.2030   86.6930 C   0  0  1  0  0  0  0  0  0  0  0  0
  148.0420  134.1200   86.7780 C   0  0  0  0  0  0  0  0  0  0  0  0
  146.8940  134.5040   86.0790 N   0  0  0  0  0  0  0  0  0  0  0  0
  147.1980  134.7510   84.7580 C   0  0  0  0  0  0  0  0  0  0  0  0
  148.2170  135.8440   84.6250 C   0  0  0  0  0  0  0  0  0  0  0  0
  148.6090  136.3240   85.9210 C   0  0  0  0  0  0  0  0  0  0  0  0
  147.4210  136.8330   86.6010 C   0  0  0  0  0  0  0  0  0  0  0  0
  146.3520  135.6760   86.6610 C   0  0  0  0  0  0  0  0  0  0  0  0
  151.2290  136.7010   89.6820 C   0  0  0  0  0  0  0  0  0  0  0  0
  152.2280  136.1820   90.4320 C   0  0  0  0  0  0  0  0  0  0  0  0
  152.4970  136.7360   91.7290 C   0  0  0  0  0  0  0  0  0  0  0  0
  153.4680  136.3290   92.6050 C   0  0  0  0  0  0  0  0  0  0  0  0
  153.6080  136.9680   93.8380 C   0  0  0  0  0  0  0  0  0  0  0  0
  152.7530  138.0290   94.1800 C   0  0  0  0  0  0  0  0  0  0  0  0
  151.7610  138.4500   93.2890 C   0  0  0  0  0  0  0  0  0  0  0  0
  150.6810  139.7990   93.7280 Cl  0  0  0  0  0  0  0  0  0  0  0  0
  151.6210  137.8230   92.0750 C   0  0  0  0  0  0  0  0  0  0  0  0
  150.5340  137.9870   90.6270 S   0  0  0  0  0  0  0  0  0  0  0  0
  148.8660  135.5660   88.7960 H   0  0  0  0  0  0  0  0  0  0  0  0
  150.0348  134.7977   86.2053 H   0  0  0  0  0  0  0  0  0  0  0  0
  148.4287  133.1850   86.3465 H   0  0  0  0  0  0  0  0  0  0  0  0
  147.7743  133.9781   87.8355 H   0  0  0  0  0  0  0  0  0  0  0  0
  147.5981  133.8319   84.3051 H   0  0  0  0  0  0  0  0  0  0  0  0
  146.2787  135.0710   84.2456 H   0  0  0  0  0  0  0  0  0  0  0  0
  149.1014  135.4531   84.1006 H   0  0  0  0  0  0  0  0  0  0  0  0
  147.7762  136.6752   84.0551 H   0  0  0  0  0  0  0  0  0  0  0  0
  149.3688  137.1135   85.8242 H   0  0  0  0  0  0  0  0  0  0  0  0
  147.6834  137.1504   87.6210 H   0  0  0  0  0  0  0  0  0  0  0  0
  147.0137  137.6978   86.0567 H   0  0  0  0  0  0  0  0  0  0  0  0
  146.0862  135.4759   87.7095 H   0  0  0  0  0  0  0  0  0  0  0  0
  145.4514  135.9788   86.1067 H   0  0  0  0  0  0  0  0  0  0  0  0
  152.8290  135.3429   90.0516 H   0  0  0  0  0  0  0  0  0  0  0  0
  154.1376  135.4985   92.3368 H   0  0  0  0  0  0  0  0  0  0  0  0
  154.3876  136.6409   94.5418 H   0  0  0  0  0  0  0  0  0  0  0  0
  152.8644  138.5306   95.1526 H   0  0  0  0  0  0  0  0  0  0  0  0
  1  2  2  0
  2  3  1  0
  3  4  1  0
  4  5  1  0
  5  6  1  0
  6  7  1  0
  7  8  1  0
  8  9  1  0
  9 10  1  0
 10 11  1  0
  2 12  1  0
 12 13  2  0
 13 14  1  0
 14 15  2  0
 15 16  1  0
 16 17  2  0
 17 18  1  0
 18 19  1  0
 18 20  2  0
 20 21  1  0
  9  4  1  0
 21 12  1  0
 11  6  1  0
 20 14  1  0
  3 22  1  0
  4 23  1  6
  5 24  1  0
  5 25  1  0
  7 26  1  0
  7 27  1  0
  8 28  1  0
  8 29  1  0
  9 30  1  0
 10 31  1  0
 10 32  1  0
 11 33  1  0
 11 34  1  0
 13 35  1  0
 15 36  1  0
 16 37  1  0
 17 38  1  0
M  END
>  <meeko>  (11)
{"is_sidechain": false}

>  <source_group>  (11)
CHRFAM7A at B face

>  <source_system>  (11)
CHRNA7_encenicline

>  <source_run>  (11)
hybrid_B_face_seed2207_ex32

>  <source_seed>  (11)
2207

>  <vina_pose_rank>  (11)
11

>  <vina_affinity_kcal_mol>  (11)
-5.3319999999999999

>  <vina_rmsd_to_crystal_angstrom>  (11)
8.8348999999999993

$$$$
CHRNA7_encenicline__hybrid_B_face_seed2207_ex32__pose12
     RDKit          3D

 38 41  0  0  0  0  0  0  0  0999 V2000
  151.5260  136.4480   87.3800 O   0  0  0  0  0  0  0  0  0  0  0  0
  150.7750  136.3040   88.2850 C   0  0  0  0  0  0  0  0  0  0  0  0
  149.4980  135.6520   88.0650 N   0  0  0  0  0  0  0  0  0  0  0  0
  149.1480  135.1760   86.7080 C   0  0  1  0  0  0  0  0  0  0  0  0
  148.0900  134.0590   86.8000 C   0  0  0  0  0  0  0  0  0  0  0  0
  146.9330  134.3980   86.0930 N   0  0  0  0  0  0  0  0  0  0  0  0
  147.2330  134.6420   84.7710 C   0  0  0  0  0  0  0  0  0  0  0  0
  148.2170  135.7660   84.6300 C   0  0  0  0  0  0  0  0  0  0  0  0
  148.5870  136.2720   85.9230 C   0  0  0  0  0  0  0  0  0  0  0  0
  147.3810  136.7480   86.5940 C   0  0  0  0  0  0  0  0  0  0  0  0
  146.3500  135.5570   86.6620 C   0  0  0  0  0  0  0  0  0  0  0  0
  151.1630  136.8070   89.6800 C   0  0  0  0  0  0  0  0  0  0  0  0
  150.6720  137.9110   90.2890 C   0  0  0  0  0  0  0  0  0  0  0  0
  151.1320  138.2560   91.6030 C   0  0  0  0  0  0  0  0  0  0  0  0
  150.7340  139.3320   92.3520 C   0  0  0  0  0  0  0  0  0  0  0  0
  151.2750  139.5380   93.6210 C   0  0  0  0  0  0  0  0  0  0  0  0
  152.2290  138.6410   94.1330 C   0  0  0  0  0  0  0  0  0  0  0  0
  152.6380  137.5400   93.3740 C   0  0  0  0  0  0  0  0  0  0  0  0
  153.8470  136.4040   94.0290 Cl  0  0  0  0  0  0  0  0  0  0  0  0
  152.1070  137.3350   92.1230 C   0  0  0  0  0  0  0  0  0  0  0  0
  152.3000  136.1070   90.7970 S   0  0  0  0  0  0  0  0  0  0  0  0
  148.8700  135.5270   88.8120 H   0  0  0  0  0  0  0  0  0  0  0  0
  150.0614  134.7955   86.2274 H   0  0  0  0  0  0  0  0  0  0  0  0
  148.5088  133.1328   86.3795 H   0  0  0  0  0  0  0  0  0  0  0  0
  147.8228  133.9192   87.8579 H   0  0  0  0  0  0  0  0  0  0  0  0
  147.6638  133.7319   84.3281 H   0  0  0  0  0  0  0  0  0  0  0  0
  146.3055  134.9276   84.2531 H   0  0  0  0  0  0  0  0  0  0  0  0
  149.1160  135.3983   84.1137 H   0  0  0  0  0  0  0  0  0  0  0  0
  147.7527  136.5764   84.0488 H   0  0  0  0  0  0  0  0  0  0  0  0
  149.3199  137.0859   85.8209 H   0  0  0  0  0  0  0  0  0  0  0  0
  147.6293  137.0836   87.6117 H   0  0  0  0  0  0  0  0  0  0  0  0
  146.9475  137.5936   86.0399 H   0  0  0  0  0  0  0  0  0  0  0  0
  146.0872  135.3584   87.7115 H   0  0  0  0  0  0  0  0  0  0  0  0
  145.4416  135.8245   86.1022 H   0  0  0  0  0  0  0  0  0  0  0  0
  149.9258  138.5391   89.7803 H   0  0  0  0  0  0  0  0  0  0  0  0
  149.9873  140.0339   91.9523 H   0  0  0  0  0  0  0  0  0  0  0  0
  150.9552  140.4024   94.2214 H   0  0  0  0  0  0  0  0  0  0  0  0
  152.6550  138.8058   95.1337 H   0  0  0  0  0  0  0  0  0  0  0  0
  1  2  2  0
  2  3  1  0
  3  4  1  0
  4  5  1  0
  5  6  1  0
  6  7  1  0
  7  8  1  0
  8  9  1  0
  9 10  1  0
 10 11  1  0
  2 12  1  0
 12 13  2  0
 13 14  1  0
 14 15  2  0
 15 16  1  0
 16 17  2  0
 17 18  1  0
 18 19  1  0
 18 20  2  0
 20 21  1  0
  9  4  1  0
 21 12  1  0
 11  6  1  0
 20 14  1  0
  3 22  1  0
  4 23  1  6
  5 24  1  0
  5 25  1  0
  7 26  1  0
  7 27  1  0
  8 28  1  0
  8 29  1  0
  9 30  1  0
 10 31  1  0
 10 32  1  0
 11 33  1  0
 11 34  1  0
 13 35  1  0
 15 36  1  0
 16 37  1  0
 17 38  1  0
M  END
>  <meeko>  (12)
{"is_sidechain": false}

>  <source_group>  (12)
CHRFAM7A at B face

>  <source_system>  (12)
CHRNA7_encenicline

>  <source_run>  (12)
hybrid_B_face_seed2207_ex32

>  <source_seed>  (12)
2207

>  <vina_pose_rank>  (12)
12

>  <vina_affinity_kcal_mol>  (12)
-5.2389999999999999

>  <vina_rmsd_to_crystal_angstrom>  (12)
8.7531999999999996

$$$$
CHRNA7_encenicline__hybrid_B_face_seed2207_ex32__pose13
     RDKit          3D

 38 41  0  0  0  0  0  0  0  0999 V2000
  148.0350  143.1030   94.7830 O   0  0  0  0  0  0  0  0  0  0  0  0
  147.0200  143.5580   94.3780 C   0  0  0  0  0  0  0  0  0  0  0  0
  147.0200  144.8510   93.7220 N   0  0  0  0  0  0  0  0  0  0  0  0
  148.2940  145.5900   93.5700 C   0  0  1  0  0  0  0  0  0  0  0  0
  148.1830  146.5940   92.4060 C   0  0  0  0  0  0  0  0  0  0  0  0
  148.4200  147.9010   92.8400 N   0  0  0  0  0  0  0  0  0  0  0  0
  149.6690  147.9960   93.4140 C   0  0  0  0  0  0  0  0  0  0  0  0
  149.8020  147.0770   94.5920 C   0  0  0  0  0  0  0  0  0  0  0  0
  148.5870  146.3370   94.7900 C   0  0  0  0  0  0  0  0  0  0  0  0
  147.5010  147.2870   95.0190 C   0  0  0  0  0  0  0  0  0  0  0  0
  147.4390  148.2730   93.7910 C   0  0  0  0  0  0  0  0  0  0  0  0
  145.7160  142.7700   94.5480 C   0  0  0  0  0  0  0  0  0  0  0  0
  144.6720  143.1280   95.3320 C   0  0  0  0  0  0  0  0  0  0  0  0
  143.5110  142.2860   95.3880 C   0  0  0  0  0  0  0  0  0  0  0  0
  142.3780  142.5060   96.1250 C   0  0  0  0  0  0  0  0  0  0  0  0
  141.3260  141.5900   96.0790 C   0  0  0  0  0  0  0  0  0  0  0  0
  141.4290  140.4420   95.2750 C   0  0  0  0  0  0  0  0  0  0  0  0
  142.5830  140.2120   94.5200 C   0  0  0  0  0  0  0  0  0  0  0  0
  142.7070  138.7550   93.5000 Cl  0  0  0  0  0  0  0  0  0  0  0  0
  143.6200  141.1120   94.5640 C   0  0  0  0  0  0  0  0  0  0  0  0
  145.2630  141.2650   93.8010 S   0  0  0  0  0  0  0  0  0  0  0  0
  146.1800  145.2340   93.3800 H   0  0  0  0  0  0  0  0  0  0  0  0
  149.0951  144.8632   93.3698 H   0  0  0  0  0  0  0  0  0  0  0  0
  148.9228  146.3325   91.6351 H   0  0  0  0  0  0  0  0  0  0  0  0
  147.1625  146.5425   91.9985 H   0  0  0  0  0  0  0  0  0  0  0  0
  150.4285  147.7290   92.6644 H   0  0  0  0  0  0  0  0  0  0  0  0
  149.8114  149.0292   93.7635 H   0  0  0  0  0  0  0  0  0  0  0  0
  150.6290  146.3744   94.4119 H   0  0  0  0  0  0  0  0  0  0  0  0
  150.0047  147.6771   95.4914 H   0  0  0  0  0  0  0  0  0  0  0  0
  148.6897  145.6524   95.6449 H   0  0  0  0  0  0  0  0  0  0  0  0
  146.5473  146.7466   95.1107 H   0  0  0  0  0  0  0  0  0  0  0  0
  147.6786  147.8490   95.9478 H   0  0  0  0  0  0  0  0  0  0  0  0
  146.4420  148.2219   93.3291 H   0  0  0  0  0  0  0  0  0  0  0  0
  147.6305  149.3004   94.1343 H   0  0  0  0  0  0  0  0  0  0  0  0
  144.7131  144.0561   95.9210 H   0  0  0  0  0  0  0  0  0  0  0  0
  142.2970  143.4051   96.7536 H   0  0  0  0  0  0  0  0  0  0  0  0
  140.4165  141.7666   96.6719 H   0  0  0  0  0  0  0  0  0  0  0  0
  140.5985  139.7216   95.2396 H   0  0  0  0  0  0  0  0  0  0  0  0
  1  2  2  0
  2  3  1  0
  3  4  1  0
  4  5  1  0
  5  6  1  0
  6  7  1  0
  7  8  1  0
  8  9  1  0
  9 10  1  0
 10 11  1  0
  2 12  1  0
 12 13  2  0
 13 14  1  0
 14 15  2  0
 15 16  1  0
 16 17  2  0
 17 18  1  0
 18 19  1  0
 18 20  2  0
 20 21  1  0
  9  4  1  0
 21 12  1  0
 11  6  1  0
 20 14  1  0
  3 22  1  0
  4 23  1  6
  5 24  1  0
  5 25  1  0
  7 26  1  0
  7 27  1  0
  8 28  1  0
  8 29  1  0
  9 30  1  0
 10 31  1  0
 10 32  1  0
 11 33  1  0
 11 34  1  0
 13 35  1  0
 15 36  1  0
 16 37  1  0
 17 38  1  0
M  END
>  <meeko>  (13)
{"is_sidechain": false}

>  <source_group>  (13)
CHRFAM7A at B face

>  <source_system>  (13)
CHRNA7_encenicline

>  <source_run>  (13)
hybrid_B_face_seed2207_ex32

>  <source_seed>  (13)
2207

>  <vina_pose_rank>  (13)
13

>  <vina_affinity_kcal_mol>  (13)
-5.2350000000000003

>  <vina_rmsd_to_crystal_angstrom>  (13)
9.5252999999999997

$$$$
CHRNA7_encenicline__hybrid_B_face_seed2207_ex32__pose14
     RDKit          3D

 38 41  0  0  0  0  0  0  0  0999 V2000
  139.8770  141.0040   87.7470 O   0  0  0  0  0  0  0  0  0  0  0  0
  140.7750  140.2340   87.8090 C   0  0  0  0  0  0  0  0  0  0  0  0
  141.1020  139.4140   86.6590 N   0  0  0  0  0  0  0  0  0  0  0  0
  140.3060  139.5490   85.4180 C   0  0  1  0  0  0  0  0  0  0  0  0
  141.2380  139.8430   84.2260 C   0  0  0  0  0  0  0  0  0  0  0  0
  141.1110  138.8690   83.2320 N   0  0  0  0  0  0  0  0  0  0  0  0
  139.8070  138.8000   82.7930 C   0  0  0  0  0  0  0  0  0  0  0  0
  138.8690  138.4550   83.9120 C   0  0  0  0  0  0  0  0  0  0  0  0
  139.5930  138.3060   85.1440 C   0  0  0  0  0  0  0  0  0  0  0  0
  140.5770  137.2400   84.9730 C   0  0  0  0  0  0  0  0  0  0  0  0
  141.4980  137.6080   83.7490 C   0  0  0  0  0  0  0  0  0  0  0  0
  141.5820  140.1150   89.1070 C   0  0  0  0  0  0  0  0  0  0  0  0
  142.8900  139.7810   89.1970 C   0  0  0  0  0  0  0  0  0  0  0  0
  143.5130  139.7120   90.4880 C   0  0  0  0  0  0  0  0  0  0  0  0
  144.8200  139.3920   90.7490 C   0  0  0  0  0  0  0  0  0  0  0  0
  145.2830  139.3650   92.0640 C   0  0  0  0  0  0  0  0  0  0  0  0
  144.4090  139.6650   93.1230 C   0  0  0  0  0  0  0  0  0  0  0  0
  143.0750  139.9930   92.8640 C   0  0  0  0  0  0  0  0  0  0  0  0
  141.9710  140.3750   94.2110 Cl  0  0  0  0  0  0  0  0  0  0  0  0
  142.6160  140.0200   91.5690 C   0  0  0  0  0  0  0  0  0  0  0  0
  141.0370  140.3720   90.7400 S   0  0  0  0  0  0  0  0  0  0  0  0
  141.8480  138.7740   86.7030 H   0  0  0  0  0  0  0  0  0  0  0  0
  139.5901  140.3732   85.5526 H   0  0  0  0  0  0  0  0  0  0  0  0
  140.9790  140.8243   83.8018 H   0  0  0  0  0  0  0  0  0  0  0  0
  142.2770  139.8381   84.5872 H   0  0  0  0  0  0  0  0  0  0  0  0
  139.5191  139.7749   82.3726 H   0  0  0  0  0  0  0  0  0  0  0  0
  139.7404  138.0103   82.0302 H   0  0  0  0  0  0  0  0  0  0  0  0
  138.1261  139.2586   84.0230 H   0  0  0  0  0  0  0  0  0  0  0  0
  138.3662  137.5055   83.6764 H   0  0  0  0  0  0  0  0  0  0  0  0
  138.9036  138.0694   85.9678 H   0  0  0  0  0  0  0  0  0  0  0  0
  141.1875  137.1480   85.8834 H   0  0  0  0  0  0  0  0  0  0  0  0
  140.0692  136.2815   84.7903 H   0  0  0  0  0  0  0  0  0  0  0  0
  142.5464  137.6525   84.0788 H   0  0  0  0  0  0  0  0  0  0  0  0
  141.3932  136.8419   82.9666 H   0  0  0  0  0  0  0  0  0  0  0  0
  143.4709  139.5642   88.2884 H   0  0  0  0  0  0  0  0  0  0  0  0
  145.5041  139.1563   89.9205 H   0  0  0  0  0  0  0  0  0  0  0  0
  146.3323  139.1089   92.2725 H   0  0  0  0  0  0  0  0  0  0  0  0
  144.7761  139.6416   94.1597 H   0  0  0  0  0  0  0  0  0  0  0  0
  1  2  2  0
  2  3  1  0
  3  4  1  0
  4  5  1  0
  5  6  1  0
  6  7  1  0
  7  8  1  0
  8  9  1  0
  9 10  1  0
 10 11  1  0
  2 12  1  0
 12 13  2  0
 13 14  1  0
 14 15  2  0
 15 16  1  0
 16 17  2  0
 17 18  1  0
 18 19  1  0
 18 20  2  0
 20 21  1  0
  9  4  1  0
 21 12  1  0
 11  6  1  0
 20 14  1  0
  3 22  1  0
  4 23  1  1
  5 24  1  0
  5 25  1  0
  7 26  1  0
  7 27  1  0
  8 28  1  0
  8 29  1  0
  9 30  1  0
 10 31  1  0
 10 32  1  0
 11 33  1  0
 11 34  1  0
 13 35  1  0
 15 36  1  0
 16 37  1  0
 17 38  1  0
M  END
>  <meeko>  (14)
{"is_sidechain": false}

>  <source_group>  (14)
CHRFAM7A at B face

>  <source_system>  (14)
CHRNA7_encenicline

>  <source_run>  (14)
hybrid_B_face_seed2207_ex32

>  <source_seed>  (14)
2207

>  <vina_pose_rank>  (14)
14

>  <vina_affinity_kcal_mol>  (14)
-5.2039999999999997

>  <vina_rmsd_to_crystal_angstrom>  (14)
5.1459000000000001

$$$$
CHRNA7_encenicline__hybrid_B_face_seed2207_ex32__pose15
     RDKit          3D

 38 41  0  0  0  0  0  0  0  0999 V2000
  148.3390  137.7030   92.2210 O   0  0  0  0  0  0  0  0  0  0  0  0
  148.0470  138.1850   91.1800 C   0  0  0  0  0  0  0  0  0  0  0  0
  146.6790  138.6020   90.9370 N   0  0  0  0  0  0  0  0  0  0  0  0
  145.6620  138.4150   91.9980 C   0  0  1  0  0  0  0  0  0  0  0  0
  145.4910  139.7220   92.7970 C   0  0  0  0  0  0  0  0  0  0  0  0
  144.1710  140.1770   92.7460 N   0  0  0  0  0  0  0  0  0  0  0  0
  143.3140  139.2180   93.2400 C   0  0  0  0  0  0  0  0  0  0  0  0
  143.4030  137.9450   92.4510 C   0  0  0  0  0  0  0  0  0  0  0  0
  144.3740  138.0740   91.4010 C   0  0  0  0  0  0  0  0  0  0  0  0
  143.9670  139.1720   90.5280 C   0  0  0  0  0  0  0  0  0  0  0  0
  143.8210  140.4730   91.4060 C   0  0  0  0  0  0  0  0  0  0  0  0
  149.1200  138.3670   90.1000 C   0  0  0  0  0  0  0  0  0  0  0  0
  148.9810  138.0680   88.7880 C   0  0  0  0  0  0  0  0  0  0  0  0
  150.0780  138.2950   87.8920 C   0  0  0  0  0  0  0  0  0  0  0  0
  150.0980  138.0490   86.5450 C   0  0  0  0  0  0  0  0  0  0  0  0
  151.2460  138.3220   85.8010 C   0  0  0  0  0  0  0  0  0  0  0  0
  152.3840  138.8500   86.4350 C   0  0  0  0  0  0  0  0  0  0  0  0
  152.3710  139.1040   87.8100 C   0  0  0  0  0  0  0  0  0  0  0  0
  153.8170  139.7760   88.6080 Cl  0  0  0  0  0  0  0  0  0  0  0  0
  151.2400  138.8360   88.5440 C   0  0  0  0  0  0  0  0  0  0  0  0
  150.7370  138.9840   90.2850 S   0  0  0  0  0  0  0  0  0  0  0  0
  146.4280  139.0050   90.0760 H   0  0  0  0  0  0  0  0  0  0  0  0
  145.9976  137.6046   92.6618 H   0  0  0  0  0  0  0  0  0  0  0  0
  145.7673  139.5399   93.8460 H   0  0  0  0  0  0  0  0  0  0  0  0
  146.1412  140.4896   92.3519 H   0  0  0  0  0  0  0  0  0  0  0  0
  143.5766  139.0088   94.2875 H   0  0  0  0  0  0  0  0  0  0  0  0
  142.2856  139.6009   93.1642 H   0  0  0  0  0  0  0  0  0  0  0  0
  143.6996  137.1238   93.1201 H   0  0  0  0  0  0  0  0  0  0  0  0
  142.4205  137.7325   92.0044 H   0  0  0  0  0  0  0  0  0  0  0  0
  144.4502  137.1354   90.8325 H   0  0  0  0  0  0  0  0  0  0  0  0
  144.7287  139.3313   89.7506 H   0  0  0  0  0  0  0  0  0  0  0  0
  143.0102  138.9342   90.0402 H   0  0  0  0  0  0  0  0  0  0  0  0
  144.4886  141.2556   91.0165 H   0  0  0  0  0  0  0  0  0  0  0  0
  142.7805  140.8279   91.3675 H   0  0  0  0  0  0  0  0  0  0  0  0
  148.0341  137.6540   88.4112 H   0  0  0  0  0  0  0  0  0  0  0  0
  149.2075  137.6355   86.0490 H   0  0  0  0  0  0  0  0  0  0  0  0
  151.2607  138.1242   84.7190 H   0  0  0  0  0  0  0  0  0  0  0  0
  153.2886  139.0643   85.8470 H   0  0  0  0  0  0  0  0  0  0  0  0
  1  2  2  0
  2  3  1  0
  3  4  1  0
  4  5  1  0
  5  6  1  0
  6  7  1  0
  7  8  1  0
  8  9  1  0
  9 10  1  0
 10 11  1  0
  2 12  1  0
 12 13  2  0
 13 14  1  0
 14 15  2  0
 15 16  1  0
 16 17  2  0
 17 18  1  0
 18 19  1  0
 18 20  2  0
 20 21  1  0
  9  4  1  0
 21 12  1  0
 11  6  1  0
 20 14  1  0
  3 22  1  0
  4 23  1  1
  5 24  1  0
  5 25  1  0
  7 26  1  0
  7 27  1  0
  8 28  1  0
  8 29  1  0
  9 30  1  0
 10 31  1  0
 10 32  1  0
 11 33  1  0
 11 34  1  0
 13 35  1  0
 15 36  1  0
 16 37  1  0
 17 38  1  0
M  END
>  <meeko>  (15)
{"is_sidechain": false}

>  <source_group>  (15)
CHRFAM7A at B face

>  <source_system>  (15)
CHRNA7_encenicline

>  <source_run>  (15)
hybrid_B_face_seed2207_ex32

>  <source_seed>  (15)
2207

>  <vina_pose_rank>  (15)
15

>  <vina_affinity_kcal_mol>  (15)
-5.1859999999999999

>  <vina_rmsd_to_crystal_angstrom>  (15)
6.6794000000000002

$$$$
CHRNA7_encenicline__hybrid_B_face_seed2207_ex32__pose16
     RDKit          3D

 38 41  0  0  0  0  0  0  0  0999 V2000
  144.5310  145.1750   98.4410 O   0  0  0  0  0  0  0  0  0  0  0  0
  144.7480  144.5230   97.4770 C   0  0  0  0  0  0  0  0  0  0  0  0
  145.9920  144.7000   96.7520 N   0  0  0  0  0  0  0  0  0  0  0  0
  146.9750  145.7000   97.2270 C   0  0  1  0  0  0  0  0  0  0  0  0
  148.4030  145.2440   96.8700 C   0  0  0  0  0  0  0  0  0  0  0  0
  149.0520  146.1890   96.0710 N   0  0  0  0  0  0  0  0  0  0  0  0
  149.1040  147.4060   96.7140 C   0  0  0  0  0  0  0  0  0  0  0  0
  147.7290  147.9190   97.0280 C   0  0  0  0  0  0  0  0  0  0  0  0
  146.7320  146.9870   96.5810 C   0  0  0  0  0  0  0  0  0  0  0  0
  146.8800  146.8110   95.1380 C   0  0  0  0  0  0  0  0  0  0  0  0
  148.3540  146.3360   94.8460 C   0  0  0  0  0  0  0  0  0  0  0  0
  143.7130  143.4950   97.0070 C   0  0  0  0  0  0  0  0  0  0  0  0
  142.4080  143.4650   97.3660 C   0  0  0  0  0  0  0  0  0  0  0  0
  141.5550  142.4380   96.8410 C   0  0  0  0  0  0  0  0  0  0  0  0
  140.2210  142.2710   97.1020 C   0  0  0  0  0  0  0  0  0  0  0  0
  139.5210  141.2160   96.5150 C   0  0  0  0  0  0  0  0  0  0  0  0
  140.1840  140.3250   95.6550 C   0  0  0  0  0  0  0  0  0  0  0  0
  141.5460  140.4900   95.3830 C   0  0  0  0  0  0  0  0  0  0  0  0
  142.3820  139.3570   94.2900 Cl  0  0  0  0  0  0  0  0  0  0  0  0
  142.2380  141.5280   95.9610 C   0  0  0  0  0  0  0  0  0  0  0  0
  143.9460  142.1480   95.9290 S   0  0  0  0  0  0  0  0  0  0  0  0
  146.1810  144.1600   95.9510 H   0  0  0  0  0  0  0  0  0  0  0  0
  146.8694  145.7987   98.3175 H   0  0  0  0  0  0  0  0  0  0  0  0
  148.9771  145.1041   97.7978 H   0  0  0  0  0  0  0  0  0  0  0  0
  148.3364  144.3007   96.3081 H   0  0  0  0  0  0  0  0  0  0  0  0
  149.6660  147.2911   97.6526 H   0  0  0  0  0  0  0  0  0  0  0  0
  149.5991  148.1282   96.0482 H   0  0  0  0  0  0  0  0  0  0  0  0
  147.6336  148.0580   98.1150 H   0  0  0  0  0  0  0  0  0  0  0  0
  147.5791  148.8774   96.5094 H   0  0  0  0  0  0  0  0  0  0  0  0
  145.7252  147.3562   96.8259 H   0  0  0  0  0  0  0  0  0  0  0  0
  146.1673  146.0531   94.7807 H   0  0  0  0  0  0  0  0  0  0  0  0
  146.6772  147.7588   94.6179 H   0  0  0  0  0  0  0  0  0  0  0  0
  148.3310  145.3710   94.3185 H   0  0  0  0  0  0  0  0  0  0  0  0
  148.8638  147.0829   94.2197 H   0  0  0  0  0  0  0  0  0  0  0  0
  142.0050  144.2221   98.0548 H   0  0  0  0  0  0  0  0  0  0  0  0
  139.7009  142.9688   97.7747 H   0  0  0  0  0  0  0  0  0  0  0  0
  138.4497  141.0822   96.7259 H   0  0  0  0  0  0  0  0  0  0  0  0
  139.6299  139.4943   95.1937 H   0  0  0  0  0  0  0  0  0  0  0  0
  1  2  2  0
  2  3  1  0
  3  4  1  0
  4  5  1  0
  5  6  1  0
  6  7  1  0
  7  8  1  0
  8  9  1  0
  9 10  1  0
 10 11  1  0
  2 12  1  0
 12 13  2  0
 13 14  1  0
 14 15  2  0
 15 16  1  0
 16 17  2  0
 17 18  1  0
 18 19  1  0
 18 20  2  0
 20 21  1  0
  9  4  1  0
 21 12  1  0
 11  6  1  0
 20 14  1  0
  3 22  1  0
  4 23  1  1
  5 24  1  0
  5 25  1  0
  7 26  1  0
  7 27  1  0
  8 28  1  0
  8 29  1  0
  9 30  1  0
 10 31  1  0
 10 32  1  0
 11 33  1  0
 11 34  1  0
 13 35  1  0
 15 36  1  0
 16 37  1  0
 17 38  1  0
M  END
>  <meeko>  (16)
{"is_sidechain": false}

>  <source_group>  (16)
CHRFAM7A at B face

>  <source_system>  (16)
CHRNA7_encenicline

>  <source_run>  (16)
hybrid_B_face_seed2207_ex32

>  <source_seed>  (16)
2207

>  <vina_pose_rank>  (16)
16

>  <vina_affinity_kcal_mol>  (16)
-5.1580000000000004

>  <vina_rmsd_to_crystal_angstrom>  (16)
10.509399999999999

$$$$
CHRNA7_encenicline__hybrid_B_face_seed2207_ex32__pose17
     RDKit          3D

 38 41  0  0  0  0  0  0  0  0999 V2000
  148.0100  138.4580   89.4960 O   0  0  0  0  0  0  0  0  0  0  0  0
  147.7620  138.2710   90.6390 C   0  0  0  0  0  0  0  0  0  0  0  0
  148.7390  137.6220   91.4910 N   0  0  0  0  0  0  0  0  0  0  0  0
  150.0370  137.1970   90.9190 C   0  0  1  0  0  0  0  0  0  0  0  0
  151.0850  138.3120   91.1070 C   0  0  0  0  0  0  0  0  0  0  0  0
  152.1850  137.8560   91.8380 N   0  0  0  0  0  0  0  0  0  0  0  0
  152.7660  136.7780   91.2060 C   0  0  0  0  0  0  0  0  0  0  0  0
  151.7970  135.6430   91.0560 C   0  0  0  0  0  0  0  0  0  0  0  0
  150.5180  136.0010   91.6030 C   0  0  0  0  0  0  0  0  0  0  0  0
  150.6940  136.3200   93.0180 C   0  0  0  0  0  0  0  0  0  0  0  0
  151.7670  137.4690   93.1350 C   0  0  0  0  0  0  0  0  0  0  0  0
  146.4110  138.7220   91.2050 C   0  0  0  0  0  0  0  0  0  0  0  0
  146.1170  138.8860   92.5150 C   0  0  0  0  0  0  0  0  0  0  0  0
  144.8020  139.3170   92.8950 C   0  0  0  0  0  0  0  0  0  0  0  0
  144.3480  139.5310   94.1700 C   0  0  0  0  0  0  0  0  0  0  0  0
  143.0350  139.9500   94.3830 C   0  0  0  0  0  0  0  0  0  0  0  0
  142.1760  140.1540   93.2890 C   0  0  0  0  0  0  0  0  0  0  0  0
  142.6330  139.9390   91.9850 C   0  0  0  0  0  0  0  0  0  0  0  0
  141.5400  140.2010   90.6010 Cl  0  0  0  0  0  0  0  0  0  0  0  0
  143.9270  139.5250   91.7730 C   0  0  0  0  0  0  0  0  0  0  0  0
  144.9600  139.1230   90.3320 S   0  0  0  0  0  0  0  0  0  0  0  0
  148.5420  137.4660   92.4430 H   0  0  0  0  0  0  0  0  0  0  0  0
  149.8915  136.9881   89.8488 H   0  0  0  0  0  0  0  0  0  0  0  0
  151.4276  138.6523   90.1186 H   0  0  0  0  0  0  0  0  0  0  0  0
  150.6173  139.1384   91.6622 H   0  0  0  0  0  0  0  0  0  0  0  0
  153.1085  137.0902   90.2084 H   0  0  0  0  0  0  0  0  0  0  0  0
  153.6114  136.4322   91.8189 H   0  0  0  0  0  0  0  0  0  0  0  0
  151.6807  135.4044   89.9885 H   0  0  0  0  0  0  0  0  0  0  0  0
  152.1850  134.7684   91.5987 H   0  0  0  0  0  0  0  0  0  0  0  0
  149.8036  135.1740   91.4783 H   0  0  0  0  0  0  0  0  0  0  0  0
  149.7383  136.6583   93.4450 H   0  0  0  0  0  0  0  0  0  0  0  0
  151.0300  135.4292   93.5690 H   0  0  0  0  0  0  0  0  0  0  0  0
  151.3242  138.3336   93.6511 H   0  0  0  0  0  0  0  0  0  0  0  0
  152.6334  137.1059   93.7073 H   0  0  0  0  0  0  0  0  0  0  0  0
  146.8798  138.6906   93.2830 H   0  0  0  0  0  0  0  0  0  0  0  0
  145.0199  139.3722   95.0264 H   0  0  0  0  0  0  0  0  0  0  0  0
  142.6715  140.1209   95.4070 H   0  0  0  0  0  0  0  0  0  0  0  0
  141.1406  140.4840   93.4594 H   0  0  0  0  0  0  0  0  0  0  0  0
  1  2  2  0
  2  3  1  0
  3  4  1  0
  4  5  1  0
  5  6  1  0
  6  7  1  0
  7  8  1  0
  8  9  1  0
  9 10  1  0
 10 11  1  0
  2 12  1  0
 12 13  2  0
 13 14  1  0
 14 15  2  0
 15 16  1  0
 16 17  2  0
 17 18  1  0
 18 19  1  0
 18 20  2  0
 20 21  1  0
  9  4  1  0
 21 12  1  0
 11  6  1  0
 20 14  1  0
  3 22  1  0
  4 23  1  6
  5 24  1  0
  5 25  1  0
  7 26  1  0
  7 27  1  0
  8 28  1  0
  8 29  1  0
  9 30  1  0
 10 31  1  0
 10 32  1  0
 11 33  1  0
 11 34  1  0
 13 35  1  0
 15 36  1  0
 16 37  1  0
 17 38  1  0
M  END
>  <meeko>  (17)
{"is_sidechain": false}

>  <source_group>  (17)
CHRFAM7A at B face

>  <source_system>  (17)
CHRNA7_encenicline

>  <source_run>  (17)
hybrid_B_face_seed2207_ex32

>  <source_seed>  (17)
2207

>  <vina_pose_rank>  (17)
17

>  <vina_affinity_kcal_mol>  (17)
-5.077

>  <vina_rmsd_to_crystal_angstrom>  (17)
9.0404

$$$$
CHRNA7_encenicline__hybrid_B_face_seed2207_ex32__pose18
     RDKit          3D

 38 41  0  0  0  0  0  0  0  0999 V2000
  150.1040  135.3090   89.8280 O   0  0  0  0  0  0  0  0  0  0  0  0
  150.1130  136.4720   89.6020 C   0  0  0  0  0  0  0  0  0  0  0  0
  149.5650  136.9660   88.3530 N   0  0  0  0  0  0  0  0  0  0  0  0
  149.0050  136.0080   87.3740 C   0  0  1  0  0  0  0  0  0  0  0  0
  147.7130  136.5800   86.7580 C   0  0  0  0  0  0  0  0  0  0  0  0
  147.8170  136.6850   85.3690 N   0  0  0  0  0  0  0  0  0  0  0  0
  148.0850  135.4520   84.8140 C   0  0  0  0  0  0  0  0  0  0  0  0
  149.3690  134.8820   85.3410 C   0  0  0  0  0  0  0  0  0  0  0  0
  149.9610  135.7780   86.2950 C   0  0  0  0  0  0  0  0  0  0  0  0
  150.2190  137.0540   85.6300 C   0  0  0  0  0  0  0  0  0  0  0  0
  148.8590  137.5840   85.0350 C   0  0  0  0  0  0  0  0  0  0  0  0
  150.6990  137.4410   90.6340 C   0  0  0  0  0  0  0  0  0  0  0  0
  151.2010  137.1010   91.8430 C   0  0  0  0  0  0  0  0  0  0  0  0
  151.7200  138.1250   92.7050 C   0  0  0  0  0  0  0  0  0  0  0  0
  152.2610  137.9470   93.9510 C   0  0  0  0  0  0  0  0  0  0  0  0
  152.7250  139.0460   94.6750 C   0  0  0  0  0  0  0  0  0  0  0  0
  152.6380  140.3360   94.1250 C   0  0  0  0  0  0  0  0  0  0  0  0
  152.0880  140.5240   92.8530 C   0  0  0  0  0  0  0  0  0  0  0  0
  151.9820  142.1640   92.1600 Cl  0  0  0  0  0  0  0  0  0  0  0  0
  151.6300  139.4430   92.1390 C   0  0  0  0  0  0  0  0  0  0  0  0
  150.8620  139.1700   90.5140 S   0  0  0  0  0  0  0  0  0  0  0  0
  149.5660  137.9310   88.1580 H   0  0  0  0  0  0  0  0  0  0  0  0
  148.7911  135.0643   87.8971 H   0  0  0  0  0  0  0  0  0  0  0  0
  146.8728  135.9145   87.0053 H   0  0  0  0  0  0  0  0  0  0  0  0
  147.5468  137.5859   87.1711 H   0  0  0  0  0  0  0  0  0  0  0  0
  147.2618  134.7638   85.0564 H   0  0  0  0  0  0  0  0  0  0  0  0
  148.1823  135.5761   83.7254 H   0  0  0  0  0  0  0  0  0  0  0  0
  149.1641  133.9174   85.8285 H   0  0  0  0  0  0  0  0  0  0  0  0
  150.0673  134.7415   84.5028 H   0  0  0  0  0  0  0  0  0  0  0  0
  150.8938  135.3520   86.6930 H   0  0  0  0  0  0  0  0  0  0  0  0
  150.6151  137.7789   86.3564 H   0  0  0  0  0  0  0  0  0  0  0  0
  150.9585  136.9208   84.8267 H   0  0  0  0  0  0  0  0  0  0  0  0
  148.6365  138.5760   85.4551 H   0  0  0  0  0  0  0  0  0  0  0  0
  148.9417  137.6602   83.9408 H   0  0  0  0  0  0  0  0  0  0  0  0
  151.2115  136.0487   92.1631 H   0  0  0  0  0  0  0  0  0  0  0  0
  152.3297  136.9369   94.3811 H   0  0  0  0  0  0  0  0  0  0  0  0
  153.1586  138.9025   95.6757 H   0  0  0  0  0  0  0  0  0  0  0  0
  153.0039  141.2014   94.6971 H   0  0  0  0  0  0  0  0  0  0  0  0
  1  2  2  0
  2  3  1  0
  3  4  1  0
  4  5  1  0
  5  6  1  0
  6  7  1  0
  7  8  1  0
  8  9  1  0
  9 10  1  0
 10 11  1  0
  2 12  1  0
 12 13  2  0
 13 14  1  0
 14 15  2  0
 15 16  1  0
 16 17  2  0
 17 18  1  0
 18 19  1  0
 18 20  2  0
 20 21  1  0
  9  4  1  0
 21 12  1  0
 11  6  1  0
 20 14  1  0
  3 22  1  0
  4 23  1  1
  5 24  1  0
  5 25  1  0
  7 26  1  0
  7 27  1  0
  8 28  1  0
  8 29  1  0
  9 30  1  0
 10 31  1  0
 10 32  1  0
 11 33  1  0
 11 34  1  0
 13 35  1  0
 15 36  1  0
 16 37  1  0
 17 38  1  0
M  END
>  <meeko>  (18)
{"is_sidechain": false}

>  <source_group>  (18)
CHRFAM7A at B face

>  <source_system>  (18)
CHRNA7_encenicline

>  <source_run>  (18)
hybrid_B_face_seed2207_ex32

>  <source_seed>  (18)
2207

>  <vina_pose_rank>  (18)
18

>  <vina_affinity_kcal_mol>  (18)
-4.8310000000000004

>  <vina_rmsd_to_crystal_angstrom>  (18)
9.1471

$$$$
CHRNA7_encenicline__hybrid_B_face_seed2207_ex32__pose19
     RDKit          3D

 38 41  0  0  0  0  0  0  0  0999 V2000
  150.2360  135.6670   89.7740 O   0  0  0  0  0  0  0  0  0  0  0  0
  150.1280  136.8170   89.5130 C   0  0  0  0  0  0  0  0  0  0  0  0
  149.4860  137.2170   88.2760 N   0  0  0  0  0  0  0  0  0  0  0  0
  148.9770  136.1790   87.3510 C   0  0  1  0  0  0  0  0  0  0  0  0
  147.6430  136.6380   86.7290 C   0  0  0  0  0  0  0  0  0  0  0  0
  147.7240  136.6820   85.3340 N   0  0  0  0  0  0  0  0  0  0  0  0
  148.0640  135.4440   84.8340 C   0  0  0  0  0  0  0  0  0  0  0  0
  149.3890  134.9840   85.3680 C   0  0  0  0  0  0  0  0  0  0  0  0
  149.9330  135.9600   86.2690 C   0  0  0  0  0  0  0  0  0  0  0  0
  150.1000  137.2160   85.5420 C   0  0  0  0  0  0  0  0  0  0  0  0
  148.7020  137.6300   84.9430 C   0  0  0  0  0  0  0  0  0  0  0  0
  150.6640  137.8700   90.4890 C   0  0  0  0  0  0  0  0  0  0  0  0
  150.9890  139.1450   90.1770 C   0  0  0  0  0  0  0  0  0  0  0  0
  151.4790  140.0200   91.2030 C   0  0  0  0  0  0  0  0  0  0  0  0
  151.8480  141.3310   91.0520 C   0  0  0  0  0  0  0  0  0  0  0  0
  152.3100  142.0580   92.1500 C   0  0  0  0  0  0  0  0  0  0  0  0
  152.3960  141.4450   93.4120 C   0  0  0  0  0  0  0  0  0  0  0  0
  152.0200  140.1080   93.5730 C   0  0  0  0  0  0  0  0  0  0  0  0
  152.1300  139.3360   95.1770 Cl  0  0  0  0  0  0  0  0  0  0  0  0
  151.5660  139.3900   92.4930 C   0  0  0  0  0  0  0  0  0  0  0  0
  150.9790  137.6960   92.1920 S   0  0  0  0  0  0  0  0  0  0  0  0
  149.3900  138.1700   88.0520 H   0  0  0  0  0  0  0  0  0  0  0  0
  148.8311  135.2491   87.9202 H   0  0  0  0  0  0  0  0  0  0  0  0
  146.8501  135.9334   87.0203 H   0  0  0  0  0  0  0  0  0  0  0  0
  147.4172  137.6498   87.0968 H   0  0  0  0  0  0  0  0  0  0  0  0
  147.2902  134.7169   85.1213 H   0  0  0  0  0  0  0  0  0  0  0  0
  148.1393  135.5210   83.7393 H   0  0  0  0  0  0  0  0  0  0  0  0
  149.2532  134.0327   85.9034 H   0  0  0  0  0  0  0  0  0  0  0  0
  150.0847  134.8490   84.5267 H   0  0  0  0  0  0  0  0  0  0  0  0
  150.8964  135.6144   86.6719 H   0  0  0  0  0  0  0  0  0  0  0  0
  150.4573  137.9982   86.2279 H   0  0  0  0  0  0  0  0  0  0  0  0
  150.8368  137.0919   84.7347 H   0  0  0  0  0  0  0  0  0  0  0  0
  148.4209  138.6244   85.3201 H   0  0  0  0  0  0  0  0  0  0  0  0
  148.7666  137.6604   83.8453 H   0  0  0  0  0  0  0  0  0  0  0  0
  150.8785  139.5084   89.1447 H   0  0  0  0  0  0  0  0  0  0  0  0
  151.7800  141.8108   90.0645 H   0  0  0  0  0  0  0  0  0  0  0  0
  152.6067  143.1102   92.0279 H   0  0  0  0  0  0  0  0  0  0  0  0
  152.7605  142.0195   94.2764 H   0  0  0  0  0  0  0  0  0  0  0  0
  1  2  2  0
  2  3  1  0
  3  4  1  0
  4  5  1  0
  5  6  1  0
  6  7  1  0
  7  8  1  0
  8  9  1  0
  9 10  1  0
 10 11  1  0
  2 12  1  0
 12 13  2  0
 13 14  1  0
 14 15  2  0
 15 16  1  0
 16 17  2  0
 17 18  1  0
 18 19  1  0
 18 20  2  0
 20 21  1  0
  9  4  1  0
 21 12  1  0
 11  6  1  0
 20 14  1  0
  3 22  1  0
  4 23  1  1
  5 24  1  0
  5 25  1  0
  7 26  1  0
  7 27  1  0
  8 28  1  0
  8 29  1  0
  9 30  1  0
 10 31  1  0
 10 32  1  0
 11 33  1  0
 11 34  1  0
 13 35  1  0
 15 36  1  0
 16 37  1  0
 17 38  1  0
M  END
>  <meeko>  (19)
{"is_sidechain": false}

>  <source_group>  (19)
CHRFAM7A at B face

>  <source_system>  (19)
CHRNA7_encenicline

>  <source_run>  (19)
hybrid_B_face_seed2207_ex32

>  <source_seed>  (19)
2207

>  <vina_pose_rank>  (19)
19

>  <vina_affinity_kcal_mol>  (19)
-4.7969999999999997

>  <vina_rmsd_to_crystal_angstrom>  (19)
9.2241999999999997

$$$$
CHRNA7_encenicline__hybrid_B_face_seed2207_ex32__pose20
     RDKit          3D

 38 41  0  0  0  0  0  0  0  0999 V2000
  144.0440  145.2440   98.5980 O   0  0  0  0  0  0  0  0  0  0  0  0
  144.5350  144.6270   97.7140 C   0  0  0  0  0  0  0  0  0  0  0  0
  145.8710  144.9600   97.2590 N   0  0  0  0  0  0  0  0  0  0  0  0
  146.6040  146.0720   97.9040 C   0  0  1  0  0  0  0  0  0  0  0  0
  148.0990  145.7150   98.0260 C   0  0  0  0  0  0  0  0  0  0  0  0
  148.8990  146.6510   97.3670 N   0  0  0  0  0  0  0  0  0  0  0  0
  148.6820  147.9120   97.8780 C   0  0  0  0  0  0  0  0  0  0  0  0
  147.2490  148.3260   97.7250 C   0  0  0  0  0  0  0  0  0  0  0  0
  146.4900  147.2820   97.0960 C   0  0  0  0  0  0  0  0  0  0  0  0
  147.0730  147.0150   95.7830 C   0  0  0  0  0  0  0  0  0  0  0  0
  148.5930  146.6490   95.9840 C   0  0  0  0  0  0  0  0  0  0  0  0
  143.7520  143.4800   97.0640 C   0  0  0  0  0  0  0  0  0  0  0  0
  144.2660  142.5420   96.2350 C   0  0  0  0  0  0  0  0  0  0  0  0
  143.4060  141.5240   95.7030 C   0  0  0  0  0  0  0  0  0  0  0  0
  143.7680  140.5080   94.8580 C   0  0  0  0  0  0  0  0  0  0  0  0
  142.8130  139.5890   94.4220 C   0  0  0  0  0  0  0  0  0  0  0  0
  141.4790  139.7050   94.8500 C   0  0  0  0  0  0  0  0  0  0  0  0
  141.1040  140.7390   95.7130 C   0  0  0  0  0  0  0  0  0  0  0  0
  139.4100  140.8790   96.2540 Cl  0  0  0  0  0  0  0  0  0  0  0  0
  142.0420  141.6460   96.1440 C   0  0  0  0  0  0  0  0  0  0  0  0
  142.0600  143.1080   97.2240 S   0  0  0  0  0  0  0  0  0  0  0  0
  146.2860  144.4500   96.5260 H   0  0  0  0  0  0  0  0  0  0  0  0
  146.1703  146.2405   98.9007 H   0  0  0  0  0  0  0  0  0  0  0  0
  148.3764  145.6923   99.0902 H   0  0  0  0  0  0  0  0  0  0  0  0
  148.2604  144.7312   97.5611 H   0  0  0  0  0  0  0  0  0  0  0  0
  148.9431  147.9148   98.9466 H   0  0  0  0  0  0  0  0  0  0  0  0
  149.3090  148.6236   97.3208 H   0  0  0  0  0  0  0  0  0  0  0  0
  146.8242  148.5349   98.7179 H   0  0  0  0  0  0  0  0  0  0  0  0
  147.2036  149.2278   97.0967 H   0  0  0  0  0  0  0  0  0  0  0  0
  145.4358  147.5804   96.9984 H   0  0  0  0  0  0  0  0  0  0  0  0
  146.5475  146.1744   95.3062 H   0  0  0  0  0  0  0  0  0  0  0  0
  146.9776  147.9008   95.1378 H   0  0  0  0  0  0  0  0  0  0  0  0
  148.7882  145.6502   95.5665 H   0  0  0  0  0  0  0  0  0  0  0  0
  149.2206  147.3905   95.4680 H   0  0  0  0  0  0  0  0  0  0  0  0
  145.3338  142.5598   95.9713 H   0  0  0  0  0  0  0  0  0  0  0  0
  144.8119  140.4168   94.5233 H   0  0  0  0  0  0  0  0  0  0  0  0
  143.1039  138.7737   93.7433 H   0  0  0  0  0  0  0  0  0  0  0  0
  140.7276  138.9797   94.5047 H   0  0  0  0  0  0  0  0  0  0  0  0
  1  2  2  0
  2  3  1  0
  3  4  1  0
  4  5  1  0
  5  6  1  0
  6  7  1  0
  7  8  1  0
  8  9  1  0
  9 10  1  0
 10 11  1  0
  2 12  1  0
 12 13  2  0
 13 14  1  0
 14 15  2  0
 15 16  1  0
 16 17  2  0
 17 18  1  0
 18 19  1  0
 18 20  2  0
 20 21  1  0
  9  4  1  0
 21 12  1  0
 11  6  1  0
 20 14  1  0
  3 22  1  0
  4 23  1  1
  5 24  1  0
  5 25  1  0
  7 26  1  0
  7 27  1  0
  8 28  1  0
  8 29  1  0
  9 30  1  0
 10 31  1  0
 10 32  1  0
 11 33  1  0
 11 34  1  0
 13 35  1  0
 15 36  1  0
 16 37  1  0
 17 38  1  0
M  END
>  <meeko>  (20)
{"is_sidechain": false}

>  <source_group>  (20)
CHRFAM7A at B face

>  <source_system>  (20)
CHRNA7_encenicline

>  <source_run>  (20)
hybrid_B_face_seed2207_ex32

>  <source_seed>  (20)
2207

>  <vina_pose_rank>  (20)
20

>  <vina_affinity_kcal_mol>  (20)
-4.7930000000000001

>  <vina_rmsd_to_crystal_angstrom>  (20)
10.651300000000001

$$$$
