CHRNA7_encenicline__hybrid_B_face_seed2207_ex32__pose01


 22 25  0  0  0  0  0  0  0  0999 V2000
  144.0860  141.0820   95.6300 O   0  0  0  0  0  0  0  0  0  0  0  0
  143.0400  140.9350   95.0950 C   0  0  0  0  0  0  0  0  0  0  0  0
  142.9910  140.4390   93.7330 N   0  0  0  0  0  0  0  0  0  0  0  0
  142.1250  140.3120   93.2820 H   0  0  0  0  0  0  0  0  0  0  0  0
  141.7490  141.2670   95.8510 C   0  0  0  0  0  0  0  0  0  0  0  0
  141.5310  142.3750   96.5950 C   0  0  0  0  0  0  0  0  0  0  0  0
  140.2630  142.5500   97.2460 C   0  0  0  0  0  0  0  0  0  0  0  0
  139.8860  143.6100   98.0280 C   0  0  0  0  0  0  0  0  0  0  0  0
  138.6120  143.6390   98.5980 C   0  0  0  0  0  0  0  0  0  0  0  0
  137.7170  142.5800   98.3690 C   0  0  0  0  0  0  0  0  0  0  0  0
  138.0950  141.4960   97.5710 C   0  0  0  0  0  0  0  0  0  0  0  0
  136.9540  140.1570   97.2830 Cl  0  0  0  0  0  0  0  0  0  0  0  0
  139.3490  141.4660   97.0090 C   0  0  0  0  0  0  0  0  0  0  0  0
  140.2840  140.3310   95.9400 S   0  0  0  0  0  0  0  0  0  0  0  0
  144.2540  140.1250   93.0260 C   0  0  0  0  0  0  0  0  0  0  0  0
  144.7040  138.6910   93.3670 C   0  0  0  0  0  0  0  0  0  0  0  0
  144.8180  137.9090   92.2150 N   0  0  0  0  0  0  0  0  0  0  0  0
  145.7130  138.4780   91.3350 C   0  0  0  0  0  0  0  0  0  0  0  0
  145.2810  139.8550   90.9280 C   0  0  0  0  0  0  0  0  0  0  0  0
  144.0520  140.2090   91.5820 C   0  0  0  0  0  0  0  0  0  0  0  0
  143.0310  139.2360   91.2030 C   0  0  0  0  0  0  0  0  0  0  0  0
  143.5520  137.7990   91.5880 C   0  0  0  0  0  0  0  0  0  0  0  0
  1  2  2  0
  2  3  1  0
  3 15  1  0
 15 16  1  0
 16 17  1  0
 17 18  1  0
 18 19  1  0
 19 20  1  0
 20 21  1  0
 21 22  1  0
  2  5  1  0
  5  6  2  0
  6  7  1  0
  7  8  2  0
  8  9  1  0
  9 10  2  0
 10 11  1  0
 11 12  1  0
 11 13  2  0
 13 14  1  0
 20 15  1  0
 14  5  1  0
 22 17  1  0
 13  7  1  0
  3  4  1  0
M  END
> <meeko>
{"is_sidechain": false}

> <source_group>
CHRFAM7A at B face

> <source_system>
CHRNA7_encenicline

> <source_run>
hybrid_B_face_seed2207_ex32

> <source_seed>
2207

> <vina_pose_rank>
1

> <vina_affinity_kcal_mol>
-6.2169999999999996

> <vina_rmsd_to_crystal_angstrom>
8.6356000000000002

> <minimizedAffinity>
-6.21801

> <CNNscore>
0.1398811936

> <CNNaffinity>
4.5753617287

> <CNN_VS>
0.6400070786

> <CNNaffinity_variance>
0.9793382287

$$$$
CHRNA7_encenicline__hybrid_B_face_seed2207_ex32__pose02


 22 25  0  0  0  0  0  0  0  0999 V2000
  146.4530  144.6110   93.6680 O   0  0  0  0  0  0  0  0  0  0  0  0
  146.5860  143.6030   94.2750 C   0  0  0  0  0  0  0  0  0  0  0  0
  147.8750  143.2730   94.8490 N   0  0  0  0  0  0  0  0  0  0  0  0
  147.9930  142.4380   95.3570 H   0  0  0  0  0  0  0  0  0  0  0  0
  145.3890  142.6610   94.4510 C   0  0  0  0  0  0  0  0  0  0  0  0
  144.3250  142.8760   95.2580 C   0  0  0  0  0  0  0  0  0  0  0  0
  143.2750  141.8990   95.3160 C   0  0  0  0  0  0  0  0  0  0  0  0
  142.1370  141.9660   96.0760 C   0  0  0  0  0  0  0  0  0  0  0  0
  141.2030  140.9320   96.0280 C   0  0  0  0  0  0  0  0  0  0  0  0
  141.4290  139.8190   95.2000 C   0  0  0  0  0  0  0  0  0  0  0  0
  142.5880  139.7440   94.4210 C   0  0  0  0  0  0  0  0  0  0  0  0
  142.8680  138.3310   93.3710 Cl  0  0  0  0  0  0  0  0  0  0  0  0
  143.5100  140.7620   94.4670 C   0  0  0  0  0  0  0  0  0  0  0  0
  145.1080  141.1260   93.6810 S   0  0  0  0  0  0  0  0  0  0  0  0
  149.0140  144.2010   94.6640 C   0  0  0  0  0  0  0  0  0  0  0  0
  149.4140  144.8180   96.0190 C   0  0  0  0  0  0  0  0  0  0  0  0
  150.7480  144.5380   96.3290 N   0  0  0  0  0  0  0  0  0  0  0  0
  151.5800  145.0170   95.3400 C   0  0  0  0  0  0  0  0  0  0  0  0
  151.2650  144.3960   94.0110 C   0  0  0  0  0  0  0  0  0  0  0  0
  150.1670  143.4790   94.1340 C   0  0  0  0  0  0  0  0  0  0  0  0
  150.5400  142.4410   95.0920 C   0  0  0  0  0  0  0  0  0  0  0  0
  150.9260  143.1380   96.4520 C   0  0  0  0  0  0  0  0  0  0  0  0
  1  2  2  0
  2  3  1  0
  3 15  1  0
 15 16  1  0
 16 17  1  0
 17 18  1  0
 18 19  1  0
 19 20  1  0
 20 21  1  0
 21 22  1  0
  2  5  1  0
  5  6  2  0
  6  7  1  0
  7  8  2  0
  8  9  1  0
  9 10  2  0
 10 11  1  0
 11 12  1  0
 11 13  2  0
 13 14  1  0
 20 15  1  0
 14  5  1  0
 22 17  1  0
 13  7  1  0
  3  4  1  0
M  END
> <meeko>
{"is_sidechain": false}

> <source_group>
CHRFAM7A at B face

> <source_system>
CHRNA7_encenicline

> <source_run>
hybrid_B_face_seed2207_ex32

> <source_seed>
2207

> <vina_pose_rank>
2

> <vina_affinity_kcal_mol>
-5.883

> <vina_rmsd_to_crystal_angstrom>
9.9059000000000008

> <minimizedAffinity>
-5.81240

> <CNNscore>
0.0569054000

> <CNNaffinity>
3.6107747555

> <CNN_VS>
0.2054725885

> <CNNaffinity_variance>
1.2665265799

$$$$
CHRNA7_encenicline__hybrid_B_face_seed2207_ex32__pose03


 22 25  0  0  0  0  0  0  0  0999 V2000
  140.9990  141.2220   89.1050 O   0  0  0  0  0  0  0  0  0  0  0  0
  141.5310  140.2170   88.7760 C   0  0  0  0  0  0  0  0  0  0  0  0
  142.5920  139.6620   89.5940 N   0  0  0  0  0  0  0  0  0  0  0  0
  143.0370  138.8260   89.3280 H   0  0  0  0  0  0  0  0  0  0  0  0
  141.0880  139.5110   87.4890 C   0  0  0  0  0  0  0  0  0  0  0  0
  141.7960  139.4470   86.3380 C   0  0  0  0  0  0  0  0  0  0  0  0
  141.2500  138.7450   85.2120 C   0  0  0  0  0  0  0  0  0  0  0  0
  141.8370  138.5880   83.9840 C   0  0  0  0  0  0  0  0  0  0  0  0
  141.1780  137.8760   82.9810 C   0  0  0  0  0  0  0  0  0  0  0  0
  139.9120  137.3190   83.2300 C   0  0  0  0  0  0  0  0  0  0  0  0
  139.3080  137.4750   84.4820 C   0  0  0  0  0  0  0  0  0  0  0  0
  137.7030  136.7650   84.7930 Cl  0  0  0  0  0  0  0  0  0  0  0  0
  139.9550  138.1760   85.4710 C   0  0  0  0  0  0  0  0  0  0  0  0
  139.6100  138.6410   87.1950 S   0  0  0  0  0  0  0  0  0  0  0  0
  143.0000  140.3640   90.8320 C   0  0  0  0  0  0  0  0  0  0  0  0
  142.2470  139.7760   92.0420 C   0  0  0  0  0  0  0  0  0  0  0  0
  143.1370  139.2830   93.0000 N   0  0  0  0  0  0  0  0  0  0  0  0
  143.9850  140.2820   93.4260 C   0  0  0  0  0  0  0  0  0  0  0  0
  144.7840  140.8430   92.2870 C   0  0  0  0  0  0  0  0  0  0  0  0
  144.4320  140.1900   91.0570 C   0  0  0  0  0  0  0  0  0  0  0  0
  144.7040  138.7620   91.1990 C   0  0  0  0  0  0  0  0  0  0  0  0
  143.8990  138.2270   92.4430 C   0  0  0  0  0  0  0  0  0  0  0  0
  1  2  2  0
  2  3  1  0
  3 15  1  0
 15 16  1  0
 16 17  1  0
 17 18  1  0
 18 19  1  0
 19 20  1  0
 20 21  1  0
 21 22  1  0
  2  5  1  0
  5  6  2  0
  6  7  1  0
  7  8  2  0
  8  9  1  0
  9 10  2  0
 10 11  1  0
 11 12  1  0
 11 13  2  0
 13 14  1  0
 20 15  1  0
 14  5  1  0
 22 17  1  0
 13  7  1  0
  3  4  1  0
M  END
> <meeko>
{"is_sidechain": false}

> <source_group>
CHRFAM7A at B face

> <source_system>
CHRNA7_encenicline

> <source_run>
hybrid_B_face_seed2207_ex32

> <source_seed>
2207

> <vina_pose_rank>
3

> <vina_affinity_kcal_mol>
-5.7519999999999998

> <vina_rmsd_to_crystal_angstrom>
7.2922000000000002

> <minimizedAffinity>
-5.69405

> <CNNscore>
0.1455296725

> <CNNaffinity>
4.3545780182

> <CNN_VS>
0.6337203383

> <CNNaffinity_variance>
1.5312637091

$$$$
CHRNA7_encenicline__hybrid_B_face_seed2207_ex32__pose04


 22 25  0  0  0  0  0  0  0  0999 V2000
  146.7890  144.2130   93.4820 O   0  0  0  0  0  0  0  0  0  0  0  0
  146.3030  143.9090   94.5190 C   0  0  0  0  0  0  0  0  0  0  0  0
  146.7160  144.5850   95.7330 N   0  0  0  0  0  0  0  0  0  0  0  0
  146.3150  144.3410   96.5980 H   0  0  0  0  0  0  0  0  0  0  0  0
  145.2390  142.8070   94.5630 C   0  0  0  0  0  0  0  0  0  0  0  0
  144.1280  142.8100   95.3360 C   0  0  0  0  0  0  0  0  0  0  0  0
  143.2180  141.7020   95.2680 C   0  0  0  0  0  0  0  0  0  0  0  0
  142.0560  141.5540   95.9780 C   0  0  0  0  0  0  0  0  0  0  0  0
  141.2720  140.4140   95.8040 C   0  0  0  0  0  0  0  0  0  0  0  0
  141.6740  139.4160   94.9000 C   0  0  0  0  0  0  0  0  0  0  0  0
  142.8580  139.5610   94.1710 C   0  0  0  0  0  0  0  0  0  0  0  0
  143.3610  138.2920   93.0240 Cl  0  0  0  0  0  0  0  0  0  0  0  0
  143.6320  140.6830   94.3410 C   0  0  0  0  0  0  0  0  0  0  0  0
  145.1930  141.3200   93.6600 S   0  0  0  0  0  0  0  0  0  0  0  0
  147.7450  145.6470   95.6620 C   0  0  0  0  0  0  0  0  0  0  0  0
  147.0690  147.0260   95.5310 C   0  0  0  0  0  0  0  0  0  0  0  0
  147.4380  147.8720   96.5800 N   0  0  0  0  0  0  0  0  0  0  0  0
  148.8070  148.0300   96.6110 C   0  0  0  0  0  0  0  0  0  0  0  0
  149.5050  146.7160   96.7980 C   0  0  0  0  0  0  0  0  0  0  0  0
  148.5490  145.6470   96.8800 C   0  0  0  0  0  0  0  0  0  0  0  0
  147.6650  145.9060   98.0140 C   0  0  0  0  0  0  0  0  0  0  0  0
  147.0030  147.3220   97.8110 C   0  0  0  0  0  0  0  0  0  0  0  0
  1  2  2  0
  2  3  1  0
  3 15  1  0
 15 16  1  0
 16 17  1  0
 17 18  1  0
 18 19  1  0
 19 20  1  0
 20 21  1  0
 21 22  1  0
  2  5  1  0
  5  6  2  0
  6  7  1  0
  7  8  2  0
  8  9  1  0
  9 10  2  0
 10 11  1  0
 11 12  1  0
 11 13  2  0
 13 14  1  0
 20 15  1  0
 14  5  1  0
 22 17  1  0
 13  7  1  0
  3  4  1  0
M  END
> <meeko>
{"is_sidechain": false}

> <source_group>
CHRFAM7A at B face

> <source_system>
CHRNA7_encenicline

> <source_run>
hybrid_B_face_seed2207_ex32

> <source_seed>
2207

> <vina_pose_rank>
4

> <vina_affinity_kcal_mol>
-5.7480000000000002

> <vina_rmsd_to_crystal_angstrom>
9.7666000000000004

> <minimizedAffinity>
-5.68420

> <CNNscore>
0.0717928484

> <CNNaffinity>
3.7003002167

> <CNN_VS>
0.2656551003

> <CNNaffinity_variance>
0.8883792758

$$$$
CHRNA7_encenicline__hybrid_B_face_seed2207_ex32__pose05


 22 25  0  0  0  0  0  0  0  0999 V2000
  146.0290  144.8430   96.0390 O   0  0  0  0  0  0  0  0  0  0  0  0
  146.1550  144.2330   95.0320 C   0  0  0  0  0  0  0  0  0  0  0  0
  147.1430  144.6500   94.0560 N   0  0  0  0  0  0  0  0  0  0  0  0
  147.2550  144.1470   93.2170 H   0  0  0  0  0  0  0  0  0  0  0  0
  145.2730  143.0070   94.7730 C   0  0  0  0  0  0  0  0  0  0  0  0
  145.5580  141.9910   93.9250 C   0  0  0  0  0  0  0  0  0  0  0  0
  144.6310  140.9040   93.7890 C   0  0  0  0  0  0  0  0  0  0  0  0
  144.7720  139.8070   92.9800 C   0  0  0  0  0  0  0  0  0  0  0  0
  143.7790  138.8270   92.9540 C   0  0  0  0  0  0  0  0  0  0  0  0
  142.6340  138.9650   93.7580 C   0  0  0  0  0  0  0  0  0  0  0  0
  142.4850  140.0820   94.5860 C   0  0  0  0  0  0  0  0  0  0  0  0
  141.0320  140.2500   95.6050 Cl  0  0  0  0  0  0  0  0  0  0  0  0
  143.4620  141.0490   94.6130 C   0  0  0  0  0  0  0  0  0  0  0  0
  143.7310  142.6220   95.4830 S   0  0  0  0  0  0  0  0  0  0  0  0
  147.9820  145.8380   94.3310 C   0  0  0  0  0  0  0  0  0  0  0  0
  149.3400  145.3990   94.9140 C   0  0  0  0  0  0  0  0  0  0  0  0
  150.4000  145.8460   94.1220 N   0  0  0  0  0  0  0  0  0  0  0  0
  150.3680  147.2190   94.0080 C   0  0  0  0  0  0  0  0  0  0  0  0
  149.0860  147.6880   93.3870 C   0  0  0  0  0  0  0  0  0  0  0  0
  148.2340  146.5710   93.0930 C   0  0  0  0  0  0  0  0  0  0  0  0
  148.9380  145.6840   92.1700 C   0  0  0  0  0  0  0  0  0  0  0  0
  150.3070  145.2690   92.8310 C   0  0  0  0  0  0  0  0  0  0  0  0
  1  2  2  0
  2  3  1  0
  3 15  1  0
 15 16  1  0
 16 17  1  0
 17 18  1  0
 18 19  1  0
 19 20  1  0
 20 21  1  0
 21 22  1  0
  2  5  1  0
  5  6  2  0
  6  7  1  0
  7  8  2  0
  8  9  1  0
  9 10  2  0
 10 11  1  0
 11 12  1  0
 11 13  2  0
 13 14  1  0
 20 15  1  0
 14  5  1  0
 22 17  1  0
 13  7  1  0
  3  4  1  0
M  END
> <meeko>
{"is_sidechain": false}

> <source_group>
CHRFAM7A at B face

> <source_system>
CHRNA7_encenicline

> <source_run>
hybrid_B_face_seed2207_ex32

> <source_seed>
2207

> <vina_pose_rank>
5

> <vina_affinity_kcal_mol>
-5.6699999999999999

> <vina_rmsd_to_crystal_angstrom>
9.3599999999999994

> <minimizedAffinity>
-5.60298

> <CNNscore>
0.0705401227

> <CNNaffinity>
3.5300331116

> <CNN_VS>
0.2490089685

> <CNNaffinity_variance>
1.6255077124

$$$$
CHRNA7_encenicline__hybrid_B_face_seed2207_ex32__pose06


 22 25  0  0  0  0  0  0  0  0999 V2000
  146.0370  145.2270   94.4660 O   0  0  0  0  0  0  0  0  0  0  0  0
  146.3240  144.0930   94.6510 C   0  0  0  0  0  0  0  0  0  0  0  0
  147.7180  143.7140   94.7780 N   0  0  0  0  0  0  0  0  0  0  0  0
  147.9640  142.7750   94.9350 H   0  0  0  0  0  0  0  0  0  0  0  0
  145.2160  143.0390   94.7590 C   0  0  0  0  0  0  0  0  0  0  0  0
  145.1510  141.8850   94.0560 C   0  0  0  0  0  0  0  0  0  0  0  0
  144.0480  140.9910   94.2670 C   0  0  0  0  0  0  0  0  0  0  0  0
  143.8380  139.7910   93.6410 C   0  0  0  0  0  0  0  0  0  0  0  0
  142.7110  139.0290   93.9530 C   0  0  0  0  0  0  0  0  0  0  0  0
  141.7930  139.4920   94.9100 C   0  0  0  0  0  0  0  0  0  0  0  0
  142.0030  140.7150   95.5540 C   0  0  0  0  0  0  0  0  0  0  0  0
  140.8350  141.2970   96.7690 Cl  0  0  0  0  0  0  0  0  0  0  0  0
  143.1110  141.4680   95.2480 C   0  0  0  0  0  0  0  0  0  0  0  0
  143.8080  143.0600   95.7820 S   0  0  0  0  0  0  0  0  0  0  0  0
  148.7670  144.7530   94.6700 C   0  0  0  0  0  0  0  0  0  0  0  0
  149.4070  144.9990   96.0500 C   0  0  0  0  0  0  0  0  0  0  0  0
  150.7840  144.7630   96.0190 N   0  0  0  0  0  0  0  0  0  0  0  0
  151.3880  145.5690   95.0800 C   0  0  0  0  0  0  0  0  0  0  0  0
  150.8370  145.3200   93.7070 C   0  0  0  0  0  0  0  0  0  0  0  0
  149.8150  144.3120   93.7530 C   0  0  0  0  0  0  0  0  0  0  0  0
  150.4020  143.0840   94.2840 C   0  0  0  0  0  0  0  0  0  0  0  0
  151.0270  143.4050   95.6950 C   0  0  0  0  0  0  0  0  0  0  0  0
  1  2  2  0
  2  3  1  0
  3 15  1  0
 15 16  1  0
 16 17  1  0
 17 18  1  0
 18 19  1  0
 19 20  1  0
 20 21  1  0
 21 22  1  0
  2  5  1  0
  5  6  2  0
  6  7  1  0
  7  8  2  0
  8  9  1  0
  9 10  2  0
 10 11  1  0
 11 12  1  0
 11 13  2  0
 13 14  1  0
 20 15  1  0
 14  5  1  0
 22 17  1  0
 13  7  1  0
  3  4  1  0
M  END
> <meeko>
{"is_sidechain": false}

> <source_group>
CHRFAM7A at B face

> <source_system>
CHRNA7_encenicline

> <source_run>
hybrid_B_face_seed2207_ex32

> <source_seed>
2207

> <vina_pose_rank>
6

> <vina_affinity_kcal_mol>
-5.6100000000000003

> <vina_rmsd_to_crystal_angstrom>
9.9031000000000002

> <minimizedAffinity>
-5.53600

> <CNNscore>
0.0596357286

> <CNNaffinity>
3.4291744232

> <CNN_VS>
0.2045013160

> <CNNaffinity_variance>
1.3035708666

$$$$
CHRNA7_encenicline__hybrid_B_face_seed2207_ex32__pose07


 22 25  0  0  0  0  0  0  0  0999 V2000
  147.5590  138.5230   90.0830 O   0  0  0  0  0  0  0  0  0  0  0  0
  147.7670  138.3050   91.2290 C   0  0  0  0  0  0  0  0  0  0  0  0
  146.6720  138.3340   92.1780 N   0  0  0  0  0  0  0  0  0  0  0  0
  146.8360  138.1520   93.1310 H   0  0  0  0  0  0  0  0  0  0  0  0
  149.1940  137.9920   91.6940 C   0  0  0  0  0  0  0  0  0  0  0  0
  149.8820  138.6640   92.6450 C   0  0  0  0  0  0  0  0  0  0  0  0
  151.2150  138.2510   92.9770 C   0  0  0  0  0  0  0  0  0  0  0  0
  152.0390  138.8210   93.9110 C   0  0  0  0  0  0  0  0  0  0  0  0
  153.3180  138.3050   94.1220 C   0  0  0  0  0  0  0  0  0  0  0  0
  153.7620  137.2010   93.3760 C   0  0  0  0  0  0  0  0  0  0  0  0
  152.9260  136.6130   92.4210 C   0  0  0  0  0  0  0  0  0  0  0  0
  153.4940  135.2100   91.4790 Cl  0  0  0  0  0  0  0  0  0  0  0  0
  151.6660  137.1200   92.2120 C   0  0  0  0  0  0  0  0  0  0  0  0
  150.2550  136.7310   91.1330 S   0  0  0  0  0  0  0  0  0  0  0  0
  145.3030  138.6390   91.7020 C   0  0  0  0  0  0  0  0  0  0  0  0
  144.2660  137.9210   92.5870 C   0  0  0  0  0  0  0  0  0  0  0  0
  143.3850  138.8320   93.1760 N   0  0  0  0  0  0  0  0  0  0  0  0
  142.7360  139.5660   92.2080 C   0  0  0  0  0  0  0  0  0  0  0  0
  143.7070  140.3310   91.3580 C   0  0  0  0  0  0  0  0  0  0  0  0
  145.0550  140.0760   91.7820 C   0  0  0  0  0  0  0  0  0  0  0  0
  145.1840  140.4870   93.1780 C   0  0  0  0  0  0  0  0  0  0  0  0
  144.1050  139.7100   94.0240 C   0  0  0  0  0  0  0  0  0  0  0  0
  1  2  2  0
  2  3  1  0
  3 15  1  0
 15 16  1  0
 16 17  1  0
 17 18  1  0
 18 19  1  0
 19 20  1  0
 20 21  1  0
 21 22  1  0
  2  5  1  0
  5  6  2  0
  6  7  1  0
  7  8  2  0
  8  9  1  0
  9 10  2  0
 10 11  1  0
 11 12  1  0
 11 13  2  0
 13 14  1  0
 20 15  1  0
 14  5  1  0
 22 17  1  0
 13  7  1  0
  3  4  1  0
M  END
> <meeko>
{"is_sidechain": false}

> <source_group>
CHRFAM7A at B face

> <source_system>
CHRNA7_encenicline

> <source_run>
hybrid_B_face_seed2207_ex32

> <source_seed>
2207

> <vina_pose_rank>
7

> <vina_affinity_kcal_mol>
-5.601

> <vina_rmsd_to_crystal_angstrom>
6.4253

> <minimizedAffinity>
-5.53087

> <CNNscore>
0.0809630230

> <CNNaffinity>
3.9473268986

> <CNN_VS>
0.3195875287

> <CNNaffinity_variance>
1.1422520876

$$$$
CHRNA7_encenicline__hybrid_B_face_seed2207_ex32__pose08


 22 25  0  0  0  0  0  0  0  0999 V2000
  146.8170  144.4460   93.5280 O   0  0  0  0  0  0  0  0  0  0  0  0
  146.3660  144.1430   94.5810 C   0  0  0  0  0  0  0  0  0  0  0  0
  146.8300  144.8090   95.7820 N   0  0  0  0  0  0  0  0  0  0  0  0
  146.4590  144.5640   96.6600 H   0  0  0  0  0  0  0  0  0  0  0  0
  145.2950  143.0500   94.6590 C   0  0  0  0  0  0  0  0  0  0  0  0
  145.2700  141.9120   93.9280 C   0  0  0  0  0  0  0  0  0  0  0  0
  144.1970  140.9770   94.1140 C   0  0  0  0  0  0  0  0  0  0  0  0
  144.0280  139.7860   93.4590 C   0  0  0  0  0  0  0  0  0  0  0  0
  142.9270  138.9790   93.7480 C   0  0  0  0  0  0  0  0  0  0  0  0
  141.9900  139.3880   94.7130 C   0  0  0  0  0  0  0  0  0  0  0  0
  142.1580  140.6020   95.3860 C   0  0  0  0  0  0  0  0  0  0  0  0
  140.9670  141.1150   96.6100 Cl  0  0  0  0  0  0  0  0  0  0  0  0
  143.2410  141.3990   95.1030 C   0  0  0  0  0  0  0  0  0  0  0  0
  143.8830  143.0000   95.6770 S   0  0  0  0  0  0  0  0  0  0  0  0
  147.8660  145.8610   95.6780 C   0  0  0  0  0  0  0  0  0  0  0  0
  147.2000  147.2500   95.6080 C   0  0  0  0  0  0  0  0  0  0  0  0
  147.6320  148.0710   96.6530 N   0  0  0  0  0  0  0  0  0  0  0  0
  149.0020  148.2140   96.6160 C   0  0  0  0  0  0  0  0  0  0  0  0
  149.6940  146.8890   96.7410 C   0  0  0  0  0  0  0  0  0  0  0  0
  148.7320  145.8290   96.8530 C   0  0  0  0  0  0  0  0  0  0  0  0
  147.9110  146.0750   98.0360 C   0  0  0  0  0  0  0  0  0  0  0  0
  147.2550  147.5010   97.8940 C   0  0  0  0  0  0  0  0  0  0  0  0
  1  2  2  0
  2  3  1  0
  3 15  1  0
 15 16  1  0
 16 17  1  0
 17 18  1  0
 18 19  1  0
 19 20  1  0
 20 21  1  0
 21 22  1  0
  2  5  1  0
  5  6  2  0
  6  7  1  0
  7  8  2  0
  8  9  1  0
  9 10  2  0
 10 11  1  0
 11 12  1  0
 11 13  2  0
 13 14  1  0
 20 15  1  0
 14  5  1  0
 22 17  1  0
 13  7  1  0
  3  4  1  0
M  END
> <meeko>
{"is_sidechain": false}

> <source_group>
CHRFAM7A at B face

> <source_system>
CHRNA7_encenicline

> <source_run>
hybrid_B_face_seed2207_ex32

> <source_seed>
2207

> <vina_pose_rank>
8

> <vina_affinity_kcal_mol>
-5.577

> <vina_rmsd_to_crystal_angstrom>
9.9710000000000001

> <minimizedAffinity>
-5.52718

> <CNNscore>
0.0731405169

> <CNNaffinity>
3.3134243488

> <CNN_VS>
0.2423455715

> <CNNaffinity_variance>
1.3327403069

$$$$
CHRNA7_encenicline__hybrid_B_face_seed2207_ex32__pose09


 22 25  0  0  0  0  0  0  0  0999 V2000
  145.6690  138.2640   90.9750 O   0  0  0  0  0  0  0  0  0  0  0  0
  146.0760  138.6840   92.0050 C   0  0  0  0  0  0  0  0  0  0  0  0
  147.4590  138.4580   92.3790 N   0  0  0  0  0  0  0  0  0  0  0  0
  147.8050  138.8050   93.2320 H   0  0  0  0  0  0  0  0  0  0  0  0
  145.1360  139.4650   92.9300 C   0  0  0  0  0  0  0  0  0  0  0  0
  145.3960  140.6700   93.4880 C   0  0  0  0  0  0  0  0  0  0  0  0
  144.4130  141.2830   94.3350 C   0  0  0  0  0  0  0  0  0  0  0  0
  144.5210  142.4920   94.9700 C   0  0  0  0  0  0  0  0  0  0  0  0
  143.4750  142.9580   95.7670 C   0  0  0  0  0  0  0  0  0  0  0  0
  142.3100  142.1860   95.9190 C   0  0  0  0  0  0  0  0  0  0  0  0
  142.1940  140.9520   95.2730 C   0  0  0  0  0  0  0  0  0  0  0  0
  140.7120  139.9780   95.4680 Cl  0  0  0  0  0  0  0  0  0  0  0  0
  143.2230  140.4910   94.4870 C   0  0  0  0  0  0  0  0  0  0  0  0
  143.5470  139.0140   93.4790 S   0  0  0  0  0  0  0  0  0  0  0  0
  148.3450  137.7000   91.4670 C   0  0  0  0  0  0  0  0  0  0  0  0
  148.9540  138.6490   90.4160 C   0  0  0  0  0  0  0  0  0  0  0  0
  150.3500  138.6340   90.4680 N   0  0  0  0  0  0  0  0  0  0  0  0
  150.8230  137.3550   90.2640 C   0  0  0  0  0  0  0  0  0  0  0  0
  150.3030  136.4070   91.3030 C   0  0  0  0  0  0  0  0  0  0  0  0
  149.4390  137.0940   92.2220 C   0  0  0  0  0  0  0  0  0  0  0  0
  150.2030  138.1620   92.8610 C   0  0  0  0  0  0  0  0  0  0  0  0
  150.7850  139.0970   91.7340 C   0  0  0  0  0  0  0  0  0  0  0  0
  1  2  2  0
  2  3  1  0
  3 15  1  0
 15 16  1  0
 16 17  1  0
 17 18  1  0
 18 19  1  0
 19 20  1  0
 20 21  1  0
 21 22  1  0
  2  5  1  0
  5  6  2  0
  6  7  1  0
  7  8  2  0
  8  9  1  0
  9 10  2  0
 10 11  1  0
 11 12  1  0
 11 13  2  0
 13 14  1  0
 20 15  1  0
 14  5  1  0
 22 17  1  0
 13  7  1  0
  3  4  1  0
M  END
> <meeko>
{"is_sidechain": false}

> <source_group>
CHRFAM7A at B face

> <source_system>
CHRNA7_encenicline

> <source_run>
hybrid_B_face_seed2207_ex32

> <source_seed>
2207

> <vina_pose_rank>
9

> <vina_affinity_kcal_mol>
-5.5140000000000002

> <vina_rmsd_to_crystal_angstrom>
8.7156000000000002

> <minimizedAffinity>
-5.50131

> <CNNscore>
0.1843158007

> <CNNaffinity>
4.4907994270

> <CNN_VS>
0.8277252913

> <CNNaffinity_variance>
0.5554870963

$$$$
CHRNA7_encenicline__hybrid_B_face_seed2207_ex32__pose10


 22 25  0  0  0  0  0  0  0  0999 V2000
  148.5010  137.6410   92.2890 O   0  0  0  0  0  0  0  0  0  0  0  0
  147.9600  138.1230   91.3520 C   0  0  0  0  0  0  0  0  0  0  0  0
  148.6680  138.2400   90.0920 N   0  0  0  0  0  0  0  0  0  0  0  0
  148.2250  138.6370   89.3080 H   0  0  0  0  0  0  0  0  0  0  0  0
  146.5130  138.6130   91.4820 C   0  0  0  0  0  0  0  0  0  0  0  0
  145.7120  138.9920   90.4600 C   0  0  0  0  0  0  0  0  0  0  0  0
  144.3730  139.4280   90.7370 C   0  0  0  0  0  0  0  0  0  0  0  0
  143.4410  139.8390   89.8210 C   0  0  0  0  0  0  0  0  0  0  0  0
  142.1730  140.2380   90.2460 C   0  0  0  0  0  0  0  0  0  0  0  0
  141.8520  140.2180   91.6140 C   0  0  0  0  0  0  0  0  0  0  0  0
  142.7980  139.7990   92.5540 C   0  0  0  0  0  0  0  0  0  0  0  0
  142.3840  139.7740   94.2880 Cl  0  0  0  0  0  0  0  0  0  0  0  0
  144.0480  139.4050   92.1380 C   0  0  0  0  0  0  0  0  0  0  0  0
  145.5680  138.8010   92.9310 S   0  0  0  0  0  0  0  0  0  0  0  0
  150.0650  137.7580   89.9940 C   0  0  0  0  0  0  0  0  0  0  0  0
  150.0930  136.3560   89.3560 C   0  0  0  0  0  0  0  0  0  0  0  0
  150.8690  136.3440   88.1930 N   0  0  0  0  0  0  0  0  0  0  0  0
  152.1560  136.7510   88.4720 C   0  0  0  0  0  0  0  0  0  0  0  0
  152.1810  138.1380   89.0410 C   0  0  0  0  0  0  0  0  0  0  0  0
  150.8470  138.6590   89.1520 C   0  0  0  0  0  0  0  0  0  0  0  0
  150.2470  138.6780   87.8200 C   0  0  0  0  0  0  0  0  0  0  0  0
  150.3010  137.2170   87.2330 C   0  0  0  0  0  0  0  0  0  0  0  0
  1  2  2  0
  2  3  1  0
  3 15  1  0
 15 16  1  0
 16 17  1  0
 17 18  1  0
 18 19  1  0
 19 20  1  0
 20 21  1  0
 21 22  1  0
  2  5  1  0
  5  6  2  0
  6  7  1  0
  7  8  2  0
  8  9  1  0
  9 10  2  0
 10 11  1  0
 11 12  1  0
 11 13  2  0
 13 14  1  0
 20 15  1  0
 14  5  1  0
 22 17  1  0
 13  7  1  0
  3  4  1  0
M  END
> <meeko>
{"is_sidechain": false}

> <source_group>
CHRFAM7A at B face

> <source_system>
CHRNA7_encenicline

> <source_run>
hybrid_B_face_seed2207_ex32

> <source_seed>
2207

> <vina_pose_rank>
10

> <vina_affinity_kcal_mol>
-5.3650000000000002

> <vina_rmsd_to_crystal_angstrom>
8.5693999999999999

> <minimizedAffinity>
-5.29237

> <CNNscore>
0.2562214434

> <CNNaffinity>
5.0426716805

> <CNN_VS>
1.2920405865

> <CNNaffinity_variance>
0.2755458653

$$$$
CHRNA7_encenicline__hybrid_B_face_seed2207_ex32__pose11


 22 25  0  0  0  0  0  0  0  0999 V2000
  151.5830  136.3250   87.3840 O   0  0  0  0  0  0  0  0  0  0  0  0
  150.8190  136.2260   88.2830 C   0  0  0  0  0  0  0  0  0  0  0  0
  149.5060  135.6540   88.0540 N   0  0  0  0  0  0  0  0  0  0  0  0
  148.8660  135.5660   88.7960 H   0  0  0  0  0  0  0  0  0  0  0  0
  151.2290  136.7010   89.6820 C   0  0  0  0  0  0  0  0  0  0  0  0
  152.2280  136.1820   90.4320 C   0  0  0  0  0  0  0  0  0  0  0  0
  152.4970  136.7360   91.7290 C   0  0  0  0  0  0  0  0  0  0  0  0
  153.4680  136.3290   92.6050 C   0  0  0  0  0  0  0  0  0  0  0  0
  153.6080  136.9680   93.8380 C   0  0  0  0  0  0  0  0  0  0  0  0
  152.7530  138.0290   94.1800 C   0  0  0  0  0  0  0  0  0  0  0  0
  151.7610  138.4500   93.2890 C   0  0  0  0  0  0  0  0  0  0  0  0
  150.6810  139.7990   93.7280 Cl  0  0  0  0  0  0  0  0  0  0  0  0
  151.6210  137.8230   92.0750 C   0  0  0  0  0  0  0  0  0  0  0  0
  150.5340  137.9870   90.6270 S   0  0  0  0  0  0  0  0  0  0  0  0
  149.1360  135.2030   86.6930 C   0  0  0  0  0  0  0  0  0  0  0  0
  148.0420  134.1200   86.7780 C   0  0  0  0  0  0  0  0  0  0  0  0
  146.8940  134.5040   86.0790 N   0  0  0  0  0  0  0  0  0  0  0  0
  147.1980  134.7510   84.7580 C   0  0  0  0  0  0  0  0  0  0  0  0
  148.2170  135.8440   84.6250 C   0  0  0  0  0  0  0  0  0  0  0  0
  148.6090  136.3240   85.9210 C   0  0  0  0  0  0  0  0  0  0  0  0
  147.4210  136.8330   86.6010 C   0  0  0  0  0  0  0  0  0  0  0  0
  146.3520  135.6760   86.6610 C   0  0  0  0  0  0  0  0  0  0  0  0
  1  2  2  0
  2  3  1  0
  3 15  1  0
 15 16  1  0
 16 17  1  0
 17 18  1  0
 18 19  1  0
 19 20  1  0
 20 21  1  0
 21 22  1  0
  2  5  1  0
  5  6  2  0
  6  7  1  0
  7  8  2  0
  8  9  1  0
  9 10  2  0
 10 11  1  0
 11 12  1  0
 11 13  2  0
 13 14  1  0
 20 15  1  0
 14  5  1  0
 22 17  1  0
 13  7  1  0
  3  4  1  0
M  END
> <meeko>
{"is_sidechain": false}

> <source_group>
CHRFAM7A at B face

> <source_system>
CHRNA7_encenicline

> <source_run>
hybrid_B_face_seed2207_ex32

> <source_seed>
2207

> <vina_pose_rank>
11

> <vina_affinity_kcal_mol>
-5.3319999999999999

> <vina_rmsd_to_crystal_angstrom>
8.8348999999999993

> <minimizedAffinity>
-5.32167

> <CNNscore>
0.1028692871

> <CNNaffinity>
4.2030425072

> <CNN_VS>
0.4323639870

> <CNNaffinity_variance>
1.1256312132

$$$$
CHRNA7_encenicline__hybrid_B_face_seed2207_ex32__pose12


 22 25  0  0  0  0  0  0  0  0999 V2000
  151.5260  136.4480   87.3800 O   0  0  0  0  0  0  0  0  0  0  0  0
  150.7750  136.3040   88.2850 C   0  0  0  0  0  0  0  0  0  0  0  0
  149.4980  135.6520   88.0650 N   0  0  0  0  0  0  0  0  0  0  0  0
  148.8700  135.5270   88.8120 H   0  0  0  0  0  0  0  0  0  0  0  0
  151.1630  136.8070   89.6800 C   0  0  0  0  0  0  0  0  0  0  0  0
  150.6720  137.9110   90.2890 C   0  0  0  0  0  0  0  0  0  0  0  0
  151.1320  138.2560   91.6030 C   0  0  0  0  0  0  0  0  0  0  0  0
  150.7340  139.3320   92.3520 C   0  0  0  0  0  0  0  0  0  0  0  0
  151.2750  139.5380   93.6210 C   0  0  0  0  0  0  0  0  0  0  0  0
  152.2290  138.6410   94.1330 C   0  0  0  0  0  0  0  0  0  0  0  0
  152.6380  137.5400   93.3740 C   0  0  0  0  0  0  0  0  0  0  0  0
  153.8470  136.4040   94.0290 Cl  0  0  0  0  0  0  0  0  0  0  0  0
  152.1070  137.3350   92.1230 C   0  0  0  0  0  0  0  0  0  0  0  0
  152.3000  136.1070   90.7970 S   0  0  0  0  0  0  0  0  0  0  0  0
  149.1480  135.1760   86.7080 C   0  0  0  0  0  0  0  0  0  0  0  0
  148.0900  134.0590   86.8000 C   0  0  0  0  0  0  0  0  0  0  0  0
  146.9330  134.3980   86.0930 N   0  0  0  0  0  0  0  0  0  0  0  0
  147.2330  134.6420   84.7710 C   0  0  0  0  0  0  0  0  0  0  0  0
  148.2170  135.7660   84.6300 C   0  0  0  0  0  0  0  0  0  0  0  0
  148.5870  136.2720   85.9230 C   0  0  0  0  0  0  0  0  0  0  0  0
  147.3810  136.7480   86.5940 C   0  0  0  0  0  0  0  0  0  0  0  0
  146.3500  135.5570   86.6620 C   0  0  0  0  0  0  0  0  0  0  0  0
  1  2  2  0
  2  3  1  0
  3 15  1  0
 15 16  1  0
 16 17  1  0
 17 18  1  0
 18 19  1  0
 19 20  1  0
 20 21  1  0
 21 22  1  0
  2  5  1  0
  5  6  2  0
  6  7  1  0
  7  8  2  0
  8  9  1  0
  9 10  2  0
 10 11  1  0
 11 12  1  0
 11 13  2  0
 13 14  1  0
 20 15  1  0
 14  5  1  0
 22 17  1  0
 13  7  1  0
  3  4  1  0
M  END
> <meeko>
{"is_sidechain": false}

> <source_group>
CHRFAM7A at B face

> <source_system>
CHRNA7_encenicline

> <source_run>
hybrid_B_face_seed2207_ex32

> <source_seed>
2207

> <vina_pose_rank>
12

> <vina_affinity_kcal_mol>
-5.2389999999999999

> <vina_rmsd_to_crystal_angstrom>
8.7531999999999996

> <minimizedAffinity>
-5.21933

> <CNNscore>
0.0818602517

> <CNNaffinity>
4.1034460068

> <CNN_VS>
0.3359091282

> <CNNaffinity_variance>
0.8364459872

$$$$
CHRNA7_encenicline__hybrid_B_face_seed2207_ex32__pose13


 22 25  0  0  0  0  0  0  0  0999 V2000
  148.0350  143.1030   94.7830 O   0  0  0  0  0  0  0  0  0  0  0  0
  147.0200  143.5580   94.3780 C   0  0  0  0  0  0  0  0  0  0  0  0
  147.0200  144.8510   93.7220 N   0  0  0  0  0  0  0  0  0  0  0  0
  146.1800  145.2340   93.3800 H   0  0  0  0  0  0  0  0  0  0  0  0
  145.7160  142.7700   94.5480 C   0  0  0  0  0  0  0  0  0  0  0  0
  144.6720  143.1280   95.3320 C   0  0  0  0  0  0  0  0  0  0  0  0
  143.5110  142.2860   95.3880 C   0  0  0  0  0  0  0  0  0  0  0  0
  142.3780  142.5060   96.1250 C   0  0  0  0  0  0  0  0  0  0  0  0
  141.3260  141.5900   96.0790 C   0  0  0  0  0  0  0  0  0  0  0  0
  141.4290  140.4420   95.2750 C   0  0  0  0  0  0  0  0  0  0  0  0
  142.5830  140.2120   94.5200 C   0  0  0  0  0  0  0  0  0  0  0  0
  142.7070  138.7550   93.5000 Cl  0  0  0  0  0  0  0  0  0  0  0  0
  143.6200  141.1120   94.5640 C   0  0  0  0  0  0  0  0  0  0  0  0
  145.2630  141.2650   93.8010 S   0  0  0  0  0  0  0  0  0  0  0  0
  148.2940  145.5900   93.5700 C   0  0  0  0  0  0  0  0  0  0  0  0
  148.1830  146.5940   92.4060 C   0  0  0  0  0  0  0  0  0  0  0  0
  148.4200  147.9010   92.8400 N   0  0  0  0  0  0  0  0  0  0  0  0
  149.6690  147.9960   93.4140 C   0  0  0  0  0  0  0  0  0  0  0  0
  149.8020  147.0770   94.5920 C   0  0  0  0  0  0  0  0  0  0  0  0
  148.5870  146.3370   94.7900 C   0  0  0  0  0  0  0  0  0  0  0  0
  147.5010  147.2870   95.0190 C   0  0  0  0  0  0  0  0  0  0  0  0
  147.4390  148.2730   93.7910 C   0  0  0  0  0  0  0  0  0  0  0  0
  1  2  2  0
  2  3  1  0
  3 15  1  0
 15 16  1  0
 16 17  1  0
 17 18  1  0
 18 19  1  0
 19 20  1  0
 20 21  1  0
 21 22  1  0
  2  5  1  0
  5  6  2  0
  6  7  1  0
  7  8  2  0
  8  9  1  0
  9 10  2  0
 10 11  1  0
 11 12  1  0
 11 13  2  0
 13 14  1  0
 20 15  1  0
 14  5  1  0
 22 17  1  0
 13  7  1  0
  3  4  1  0
M  END
> <meeko>
{"is_sidechain": false}

> <source_group>
CHRFAM7A at B face

> <source_system>
CHRNA7_encenicline

> <source_run>
hybrid_B_face_seed2207_ex32

> <source_seed>
2207

> <vina_pose_rank>
13

> <vina_affinity_kcal_mol>
-5.2350000000000003

> <vina_rmsd_to_crystal_angstrom>
9.5252999999999997

> <minimizedAffinity>
-5.21314

> <CNNscore>
0.0527953953

> <CNNaffinity>
3.3638505936

> <CNN_VS>
0.1775958240

> <CNNaffinity_variance>
1.4054975510

$$$$
CHRNA7_encenicline__hybrid_B_face_seed2207_ex32__pose14


 22 25  0  0  0  0  0  0  0  0999 V2000
  139.8770  141.0040   87.7470 O   0  0  0  0  0  0  0  0  0  0  0  0
  140.7750  140.2340   87.8090 C   0  0  0  0  0  0  0  0  0  0  0  0
  141.1020  139.4140   86.6590 N   0  0  0  0  0  0  0  0  0  0  0  0
  141.8480  138.7740   86.7030 H   0  0  0  0  0  0  0  0  0  0  0  0
  141.5820  140.1150   89.1070 C   0  0  0  0  0  0  0  0  0  0  0  0
  142.8900  139.7810   89.1970 C   0  0  0  0  0  0  0  0  0  0  0  0
  143.5130  139.7120   90.4880 C   0  0  0  0  0  0  0  0  0  0  0  0
  144.8200  139.3920   90.7490 C   0  0  0  0  0  0  0  0  0  0  0  0
  145.2830  139.3650   92.0640 C   0  0  0  0  0  0  0  0  0  0  0  0
  144.4090  139.6650   93.1230 C   0  0  0  0  0  0  0  0  0  0  0  0
  143.0750  139.9930   92.8640 C   0  0  0  0  0  0  0  0  0  0  0  0
  141.9710  140.3750   94.2110 Cl  0  0  0  0  0  0  0  0  0  0  0  0
  142.6160  140.0200   91.5690 C   0  0  0  0  0  0  0  0  0  0  0  0
  141.0370  140.3720   90.7400 S   0  0  0  0  0  0  0  0  0  0  0  0
  140.3060  139.5490   85.4180 C   0  0  0  0  0  0  0  0  0  0  0  0
  141.2380  139.8430   84.2260 C   0  0  0  0  0  0  0  0  0  0  0  0
  141.1110  138.8690   83.2320 N   0  0  0  0  0  0  0  0  0  0  0  0
  139.8070  138.8000   82.7930 C   0  0  0  0  0  0  0  0  0  0  0  0
  138.8690  138.4550   83.9120 C   0  0  0  0  0  0  0  0  0  0  0  0
  139.5930  138.3060   85.1440 C   0  0  0  0  0  0  0  0  0  0  0  0
  140.5770  137.2400   84.9730 C   0  0  0  0  0  0  0  0  0  0  0  0
  141.4980  137.6080   83.7490 C   0  0  0  0  0  0  0  0  0  0  0  0
  1  2  2  0
  2  3  1  0
  3 15  1  0
 15 16  1  0
 16 17  1  0
 17 18  1  0
 18 19  1  0
 19 20  1  0
 20 21  1  0
 21 22  1  0
  2  5  1  0
  5  6  2  0
  6  7  1  0
  7  8  2  0
  8  9  1  0
  9 10  2  0
 10 11  1  0
 11 12  1  0
 11 13  2  0
 13 14  1  0
 20 15  1  0
 14  5  1  0
 22 17  1  0
 13  7  1  0
  3  4  1  0
M  END
> <meeko>
{"is_sidechain": false}

> <source_group>
CHRFAM7A at B face

> <source_system>
CHRNA7_encenicline

> <source_run>
hybrid_B_face_seed2207_ex32

> <source_seed>
2207

> <vina_pose_rank>
14

> <vina_affinity_kcal_mol>
-5.2039999999999997

> <vina_rmsd_to_crystal_angstrom>
5.1459000000000001

> <minimizedAffinity>
-5.12569

> <CNNscore>
0.1132423803

> <CNNaffinity>
4.8548741341

> <CNN_VS>
0.5497775078

> <CNNaffinity_variance>
1.1475917101

$$$$
CHRNA7_encenicline__hybrid_B_face_seed2207_ex32__pose15


 22 25  0  0  0  0  0  0  0  0999 V2000
  148.3390  137.7030   92.2210 O   0  0  0  0  0  0  0  0  0  0  0  0
  148.0470  138.1850   91.1800 C   0  0  0  0  0  0  0  0  0  0  0  0
  146.6790  138.6020   90.9370 N   0  0  0  0  0  0  0  0  0  0  0  0
  146.4280  139.0050   90.0760 H   0  0  0  0  0  0  0  0  0  0  0  0
  149.1200  138.3670   90.1000 C   0  0  0  0  0  0  0  0  0  0  0  0
  148.9810  138.0680   88.7880 C   0  0  0  0  0  0  0  0  0  0  0  0
  150.0780  138.2950   87.8920 C   0  0  0  0  0  0  0  0  0  0  0  0
  150.0980  138.0490   86.5450 C   0  0  0  0  0  0  0  0  0  0  0  0
  151.2460  138.3220   85.8010 C   0  0  0  0  0  0  0  0  0  0  0  0
  152.3840  138.8500   86.4350 C   0  0  0  0  0  0  0  0  0  0  0  0
  152.3710  139.1040   87.8100 C   0  0  0  0  0  0  0  0  0  0  0  0
  153.8170  139.7760   88.6080 Cl  0  0  0  0  0  0  0  0  0  0  0  0
  151.2400  138.8360   88.5440 C   0  0  0  0  0  0  0  0  0  0  0  0
  150.7370  138.9840   90.2850 S   0  0  0  0  0  0  0  0  0  0  0  0
  145.6620  138.4150   91.9980 C   0  0  0  0  0  0  0  0  0  0  0  0
  145.4910  139.7220   92.7970 C   0  0  0  0  0  0  0  0  0  0  0  0
  144.1710  140.1770   92.7460 N   0  0  0  0  0  0  0  0  0  0  0  0
  143.3140  139.2180   93.2400 C   0  0  0  0  0  0  0  0  0  0  0  0
  143.4030  137.9450   92.4510 C   0  0  0  0  0  0  0  0  0  0  0  0
  144.3740  138.0740   91.4010 C   0  0  0  0  0  0  0  0  0  0  0  0
  143.9670  139.1720   90.5280 C   0  0  0  0  0  0  0  0  0  0  0  0
  143.8210  140.4730   91.4060 C   0  0  0  0  0  0  0  0  0  0  0  0
  1  2  2  0
  2  3  1  0
  3 15  1  0
 15 16  1  0
 16 17  1  0
 17 18  1  0
 18 19  1  0
 19 20  1  0
 20 21  1  0
 21 22  1  0
  2  5  1  0
  5  6  2  0
  6  7  1  0
  7  8  2  0
  8  9  1  0
  9 10  2  0
 10 11  1  0
 11 12  1  0
 11 13  2  0
 13 14  1  0
 20 15  1  0
 14  5  1  0
 22 17  1  0
 13  7  1  0
  3  4  1  0
M  END
> <meeko>
{"is_sidechain": false}

> <source_group>
CHRFAM7A at B face

> <source_system>
CHRNA7_encenicline

> <source_run>
hybrid_B_face_seed2207_ex32

> <source_seed>
2207

> <vina_pose_rank>
15

> <vina_affinity_kcal_mol>
-5.1859999999999999

> <vina_rmsd_to_crystal_angstrom>
6.6794000000000002

> <minimizedAffinity>
-5.11715

> <CNNscore>
0.1210136861

> <CNNaffinity>
4.9756526947

> <CNN_VS>
0.6021220684

> <CNNaffinity_variance>
0.4631617367

$$$$
CHRNA7_encenicline__hybrid_B_face_seed2207_ex32__pose16


 22 25  0  0  0  0  0  0  0  0999 V2000
  144.5310  145.1750   98.4410 O   0  0  0  0  0  0  0  0  0  0  0  0
  144.7480  144.5230   97.4770 C   0  0  0  0  0  0  0  0  0  0  0  0
  145.9920  144.7000   96.7520 N   0  0  0  0  0  0  0  0  0  0  0  0
  146.1810  144.1600   95.9510 H   0  0  0  0  0  0  0  0  0  0  0  0
  143.7130  143.4950   97.0070 C   0  0  0  0  0  0  0  0  0  0  0  0
  142.4080  143.4650   97.3660 C   0  0  0  0  0  0  0  0  0  0  0  0
  141.5550  142.4380   96.8410 C   0  0  0  0  0  0  0  0  0  0  0  0
  140.2210  142.2710   97.1020 C   0  0  0  0  0  0  0  0  0  0  0  0
  139.5210  141.2160   96.5150 C   0  0  0  0  0  0  0  0  0  0  0  0
  140.1840  140.3250   95.6550 C   0  0  0  0  0  0  0  0  0  0  0  0
  141.5460  140.4900   95.3830 C   0  0  0  0  0  0  0  0  0  0  0  0
  142.3820  139.3570   94.2900 Cl  0  0  0  0  0  0  0  0  0  0  0  0
  142.2380  141.5280   95.9610 C   0  0  0  0  0  0  0  0  0  0  0  0
  143.9460  142.1480   95.9290 S   0  0  0  0  0  0  0  0  0  0  0  0
  146.9750  145.7000   97.2270 C   0  0  0  0  0  0  0  0  0  0  0  0
  148.4030  145.2440   96.8700 C   0  0  0  0  0  0  0  0  0  0  0  0
  149.0520  146.1890   96.0710 N   0  0  0  0  0  0  0  0  0  0  0  0
  149.1040  147.4060   96.7140 C   0  0  0  0  0  0  0  0  0  0  0  0
  147.7290  147.9190   97.0280 C   0  0  0  0  0  0  0  0  0  0  0  0
  146.7320  146.9870   96.5810 C   0  0  0  0  0  0  0  0  0  0  0  0
  146.8800  146.8110   95.1380 C   0  0  0  0  0  0  0  0  0  0  0  0
  148.3540  146.3360   94.8460 C   0  0  0  0  0  0  0  0  0  0  0  0
  1  2  2  0
  2  3  1  0
  3 15  1  0
 15 16  1  0
 16 17  1  0
 17 18  1  0
 18 19  1  0
 19 20  1  0
 20 21  1  0
 21 22  1  0
  2  5  1  0
  5  6  2  0
  6  7  1  0
  7  8  2  0
  8  9  1  0
  9 10  2  0
 10 11  1  0
 11 12  1  0
 11 13  2  0
 13 14  1  0
 20 15  1  0
 14  5  1  0
 22 17  1  0
 13  7  1  0
  3  4  1  0
M  END
> <meeko>
{"is_sidechain": false}

> <source_group>
CHRFAM7A at B face

> <source_system>
CHRNA7_encenicline

> <source_run>
hybrid_B_face_seed2207_ex32

> <source_seed>
2207

> <vina_pose_rank>
16

> <vina_affinity_kcal_mol>
-5.1580000000000004

> <vina_rmsd_to_crystal_angstrom>
10.509399999999999

> <minimizedAffinity>
-5.11929

> <CNNscore>
0.1124571189

> <CNNaffinity>
3.6389262676

> <CNN_VS>
0.4092231691

> <CNNaffinity_variance>
0.7663981318

$$$$
CHRNA7_encenicline__hybrid_B_face_seed2207_ex32__pose17


 22 25  0  0  0  0  0  0  0  0999 V2000
  148.0100  138.4580   89.4960 O   0  0  0  0  0  0  0  0  0  0  0  0
  147.7620  138.2710   90.6390 C   0  0  0  0  0  0  0  0  0  0  0  0
  148.7390  137.6220   91.4910 N   0  0  0  0  0  0  0  0  0  0  0  0
  148.5420  137.4660   92.4430 H   0  0  0  0  0  0  0  0  0  0  0  0
  146.4110  138.7220   91.2050 C   0  0  0  0  0  0  0  0  0  0  0  0
  146.1170  138.8860   92.5150 C   0  0  0  0  0  0  0  0  0  0  0  0
  144.8020  139.3170   92.8950 C   0  0  0  0  0  0  0  0  0  0  0  0
  144.3480  139.5310   94.1700 C   0  0  0  0  0  0  0  0  0  0  0  0
  143.0350  139.9500   94.3830 C   0  0  0  0  0  0  0  0  0  0  0  0
  142.1760  140.1540   93.2890 C   0  0  0  0  0  0  0  0  0  0  0  0
  142.6330  139.9390   91.9850 C   0  0  0  0  0  0  0  0  0  0  0  0
  141.5400  140.2010   90.6010 Cl  0  0  0  0  0  0  0  0  0  0  0  0
  143.9270  139.5250   91.7730 C   0  0  0  0  0  0  0  0  0  0  0  0
  144.9600  139.1230   90.3320 S   0  0  0  0  0  0  0  0  0  0  0  0
  150.0370  137.1970   90.9190 C   0  0  0  0  0  0  0  0  0  0  0  0
  151.0850  138.3120   91.1070 C   0  0  0  0  0  0  0  0  0  0  0  0
  152.1850  137.8560   91.8380 N   0  0  0  0  0  0  0  0  0  0  0  0
  152.7660  136.7780   91.2060 C   0  0  0  0  0  0  0  0  0  0  0  0
  151.7970  135.6430   91.0560 C   0  0  0  0  0  0  0  0  0  0  0  0
  150.5180  136.0010   91.6030 C   0  0  0  0  0  0  0  0  0  0  0  0
  150.6940  136.3200   93.0180 C   0  0  0  0  0  0  0  0  0  0  0  0
  151.7670  137.4690   93.1350 C   0  0  0  0  0  0  0  0  0  0  0  0
  1  2  2  0
  2  3  1  0
  3 15  1  0
 15 16  1  0
 16 17  1  0
 17 18  1  0
 18 19  1  0
 19 20  1  0
 20 21  1  0
 21 22  1  0
  2  5  1  0
  5  6  2  0
  6  7  1  0
  7  8  2  0
  8  9  1  0
  9 10  2  0
 10 11  1  0
 11 12  1  0
 11 13  2  0
 13 14  1  0
 20 15  1  0
 14  5  1  0
 22 17  1  0
 13  7  1  0
  3  4  1  0
M  END
> <meeko>
{"is_sidechain": false}

> <source_group>
CHRFAM7A at B face

> <source_system>
CHRNA7_encenicline

> <source_run>
hybrid_B_face_seed2207_ex32

> <source_seed>
2207

> <vina_pose_rank>
17

> <vina_affinity_kcal_mol>
-5.077

> <vina_rmsd_to_crystal_angstrom>
9.0404

> <minimizedAffinity>
-5.02245

> <CNNscore>
0.3565470874

> <CNNaffinity>
4.5413894653

> <CNN_VS>
1.6192191839

> <CNNaffinity_variance>
0.5531058908

$$$$
CHRNA7_encenicline__hybrid_B_face_seed2207_ex32__pose18


 22 25  0  0  0  0  0  0  0  0999 V2000
  150.1040  135.3090   89.8280 O   0  0  0  0  0  0  0  0  0  0  0  0
  150.1130  136.4720   89.6020 C   0  0  0  0  0  0  0  0  0  0  0  0
  149.5650  136.9660   88.3530 N   0  0  0  0  0  0  0  0  0  0  0  0
  149.5660  137.9310   88.1580 H   0  0  0  0  0  0  0  0  0  0  0  0
  150.6990  137.4410   90.6340 C   0  0  0  0  0  0  0  0  0  0  0  0
  151.2010  137.1010   91.8430 C   0  0  0  0  0  0  0  0  0  0  0  0
  151.7200  138.1250   92.7050 C   0  0  0  0  0  0  0  0  0  0  0  0
  152.2610  137.9470   93.9510 C   0  0  0  0  0  0  0  0  0  0  0  0
  152.7250  139.0460   94.6750 C   0  0  0  0  0  0  0  0  0  0  0  0
  152.6380  140.3360   94.1250 C   0  0  0  0  0  0  0  0  0  0  0  0
  152.0880  140.5240   92.8530 C   0  0  0  0  0  0  0  0  0  0  0  0
  151.9820  142.1640   92.1600 Cl  0  0  0  0  0  0  0  0  0  0  0  0
  151.6300  139.4430   92.1390 C   0  0  0  0  0  0  0  0  0  0  0  0
  150.8620  139.1700   90.5140 S   0  0  0  0  0  0  0  0  0  0  0  0
  149.0050  136.0080   87.3740 C   0  0  0  0  0  0  0  0  0  0  0  0
  147.7130  136.5800   86.7580 C   0  0  0  0  0  0  0  0  0  0  0  0
  147.8170  136.6850   85.3690 N   0  0  0  0  0  0  0  0  0  0  0  0
  148.0850  135.4520   84.8140 C   0  0  0  0  0  0  0  0  0  0  0  0
  149.3690  134.8820   85.3410 C   0  0  0  0  0  0  0  0  0  0  0  0
  149.9610  135.7780   86.2950 C   0  0  0  0  0  0  0  0  0  0  0  0
  150.2190  137.0540   85.6300 C   0  0  0  0  0  0  0  0  0  0  0  0
  148.8590  137.5840   85.0350 C   0  0  0  0  0  0  0  0  0  0  0  0
  1  2  2  0
  2  3  1  0
  3 15  1  0
 15 16  1  0
 16 17  1  0
 17 18  1  0
 18 19  1  0
 19 20  1  0
 20 21  1  0
 21 22  1  0
  2  5  1  0
  5  6  2  0
  6  7  1  0
  7  8  2  0
  8  9  1  0
  9 10  2  0
 10 11  1  0
 11 12  1  0
 11 13  2  0
 13 14  1  0
 20 15  1  0
 14  5  1  0
 22 17  1  0
 13  7  1  0
  3  4  1  0
M  END
> <meeko>
{"is_sidechain": false}

> <source_group>
CHRFAM7A at B face

> <source_system>
CHRNA7_encenicline

> <source_run>
hybrid_B_face_seed2207_ex32

> <source_seed>
2207

> <vina_pose_rank>
18

> <vina_affinity_kcal_mol>
-4.8310000000000004

> <vina_rmsd_to_crystal_angstrom>
9.1471

> <minimizedAffinity>
-4.75829

> <CNNscore>
0.0830441564

> <CNNaffinity>
4.1348314285

> <CNN_VS>
0.3433735967

> <CNNaffinity_variance>
0.3433566988

$$$$
CHRNA7_encenicline__hybrid_B_face_seed2207_ex32__pose19


 22 25  0  0  0  0  0  0  0  0999 V2000
  150.2360  135.6670   89.7740 O   0  0  0  0  0  0  0  0  0  0  0  0
  150.1280  136.8170   89.5130 C   0  0  0  0  0  0  0  0  0  0  0  0
  149.4860  137.2170   88.2760 N   0  0  0  0  0  0  0  0  0  0  0  0
  149.3900  138.1700   88.0520 H   0  0  0  0  0  0  0  0  0  0  0  0
  150.6640  137.8700   90.4890 C   0  0  0  0  0  0  0  0  0  0  0  0
  150.9890  139.1450   90.1770 C   0  0  0  0  0  0  0  0  0  0  0  0
  151.4790  140.0200   91.2030 C   0  0  0  0  0  0  0  0  0  0  0  0
  151.8480  141.3310   91.0520 C   0  0  0  0  0  0  0  0  0  0  0  0
  152.3100  142.0580   92.1500 C   0  0  0  0  0  0  0  0  0  0  0  0
  152.3960  141.4450   93.4120 C   0  0  0  0  0  0  0  0  0  0  0  0
  152.0200  140.1080   93.5730 C   0  0  0  0  0  0  0  0  0  0  0  0
  152.1300  139.3360   95.1770 Cl  0  0  0  0  0  0  0  0  0  0  0  0
  151.5660  139.3900   92.4930 C   0  0  0  0  0  0  0  0  0  0  0  0
  150.9790  137.6960   92.1920 S   0  0  0  0  0  0  0  0  0  0  0  0
  148.9770  136.1790   87.3510 C   0  0  0  0  0  0  0  0  0  0  0  0
  147.6430  136.6380   86.7290 C   0  0  0  0  0  0  0  0  0  0  0  0
  147.7240  136.6820   85.3340 N   0  0  0  0  0  0  0  0  0  0  0  0
  148.0640  135.4440   84.8340 C   0  0  0  0  0  0  0  0  0  0  0  0
  149.3890  134.9840   85.3680 C   0  0  0  0  0  0  0  0  0  0  0  0
  149.9330  135.9600   86.2690 C   0  0  0  0  0  0  0  0  0  0  0  0
  150.1000  137.2160   85.5420 C   0  0  0  0  0  0  0  0  0  0  0  0
  148.7020  137.6300   84.9430 C   0  0  0  0  0  0  0  0  0  0  0  0
  1  2  2  0
  2  3  1  0
  3 15  1  0
 15 16  1  0
 16 17  1  0
 17 18  1  0
 18 19  1  0
 19 20  1  0
 20 21  1  0
 21 22  1  0
  2  5  1  0
  5  6  2  0
  6  7  1  0
  7  8  2  0
  8  9  1  0
  9 10  2  0
 10 11  1  0
 11 12  1  0
 11 13  2  0
 13 14  1  0
 20 15  1  0
 14  5  1  0
 22 17  1  0
 13  7  1  0
  3  4  1  0
M  END
> <meeko>
{"is_sidechain": false}

> <source_group>
CHRFAM7A at B face

> <source_system>
CHRNA7_encenicline

> <source_run>
hybrid_B_face_seed2207_ex32

> <source_seed>
2207

> <vina_pose_rank>
19

> <vina_affinity_kcal_mol>
-4.7969999999999997

> <vina_rmsd_to_crystal_angstrom>
9.2241999999999997

> <minimizedAffinity>
-4.69836

> <CNNscore>
0.1055984944

> <CNNaffinity>
4.1914525032

> <CNN_VS>
0.4426110685

> <CNNaffinity_variance>
0.2575824857

$$$$
CHRNA7_encenicline__hybrid_B_face_seed2207_ex32__pose20


 22 25  0  0  0  0  0  0  0  0999 V2000
  144.0440  145.2440   98.5980 O   0  0  0  0  0  0  0  0  0  0  0  0
  144.5350  144.6270   97.7140 C   0  0  0  0  0  0  0  0  0  0  0  0
  145.8710  144.9600   97.2590 N   0  0  0  0  0  0  0  0  0  0  0  0
  146.2860  144.4500   96.5260 H   0  0  0  0  0  0  0  0  0  0  0  0
  143.7520  143.4800   97.0640 C   0  0  0  0  0  0  0  0  0  0  0  0
  144.2660  142.5420   96.2350 C   0  0  0  0  0  0  0  0  0  0  0  0
  143.4060  141.5240   95.7030 C   0  0  0  0  0  0  0  0  0  0  0  0
  143.7680  140.5080   94.8580 C   0  0  0  0  0  0  0  0  0  0  0  0
  142.8130  139.5890   94.4220 C   0  0  0  0  0  0  0  0  0  0  0  0
  141.4790  139.7050   94.8500 C   0  0  0  0  0  0  0  0  0  0  0  0
  141.1040  140.7390   95.7130 C   0  0  0  0  0  0  0  0  0  0  0  0
  139.4100  140.8790   96.2540 Cl  0  0  0  0  0  0  0  0  0  0  0  0
  142.0420  141.6460   96.1440 C   0  0  0  0  0  0  0  0  0  0  0  0
  142.0600  143.1080   97.2240 S   0  0  0  0  0  0  0  0  0  0  0  0
  146.6040  146.0720   97.9040 C   0  0  0  0  0  0  0  0  0  0  0  0
  148.0990  145.7150   98.0260 C   0  0  0  0  0  0  0  0  0  0  0  0
  148.8990  146.6510   97.3670 N   0  0  0  0  0  0  0  0  0  0  0  0
  148.6820  147.9120   97.8780 C   0  0  0  0  0  0  0  0  0  0  0  0
  147.2490  148.3260   97.7250 C   0  0  0  0  0  0  0  0  0  0  0  0
  146.4900  147.2820   97.0960 C   0  0  0  0  0  0  0  0  0  0  0  0
  147.0730  147.0150   95.7830 C   0  0  0  0  0  0  0  0  0  0  0  0
  148.5930  146.6490   95.9840 C   0  0  0  0  0  0  0  0  0  0  0  0
  1  2  2  0
  2  3  1  0
  3 15  1  0
 15 16  1  0
 16 17  1  0
 17 18  1  0
 18 19  1  0
 19 20  1  0
 20 21  1  0
 21 22  1  0
  2  5  1  0
  5  6  2  0
  6  7  1  0
  7  8  2  0
  8  9  1  0
  9 10  2  0
 10 11  1  0
 11 12  1  0
 11 13  2  0
 13 14  1  0
 20 15  1  0
 14  5  1  0
 22 17  1  0
 13  7  1  0
  3  4  1  0
M  END
> <meeko>
{"is_sidechain": false}

> <source_group>
CHRFAM7A at B face

> <source_system>
CHRNA7_encenicline

> <source_run>
hybrid_B_face_seed2207_ex32

> <source_seed>
2207

> <vina_pose_rank>
20

> <vina_affinity_kcal_mol>
-4.7930000000000001

> <vina_rmsd_to_crystal_angstrom>
10.651300000000001

> <minimizedAffinity>
-4.71288

> <CNNscore>
0.1413491815

> <CNNaffinity>
3.7566401958

> <CNN_VS>
0.5309979916

> <CNNaffinity_variance>
0.6597047448

$$$$
