BI409306
     RDKit          3D

 40 43  0  0  0  0  0  0  0  0999 V2000
   -2.4206   -1.1572   -1.4902 C   0  0  0  0  0  0  0  0  0  0  0  0
   -3.5992   -2.1010   -1.3083 C   0  0  0  0  0  0  0  0  0  0  0  0
   -4.1126   -2.0153    0.0204 O   0  0  0  0  0  0  0  0  0  0  0  0
   -4.6095   -0.7140    0.3313 C   0  0  0  0  0  0  0  0  0  0  0  0
   -3.4957    0.3189    0.2536 C   0  0  0  0  0  0  0  0  0  0  0  0
   -2.8404    0.2706   -1.1297 C   0  0  0  0  0  0  0  0  0  0  0  0
   -1.7544    1.2289   -1.2738 N   0  0  0  0  0  0  0  0  0  0  0  0
   -0.5714    1.2858   -0.5840 C   0  0  0  0  0  0  0  0  0  0  0  0
    0.1066    2.3658   -1.0958 C   0  0  0  0  0  0  0  0  0  0  0  0
   -0.7225    2.9020   -2.0835 C   0  0  0  0  0  0  0  0  0  0  0  0
   -1.8669    2.2165   -2.2019 N   0  0  0  0  0  0  0  0  0  0  0  0
    1.4016    2.6864   -0.5736 C   0  0  0  0  0  0  0  0  0  0  0  0
    2.1081    3.5967   -0.9879 O   0  0  0  0  0  0  0  0  0  0  0  0
    1.7744    1.8369    0.4488 N   0  0  0  0  0  0  0  0  0  0  0  0
    1.0169    0.7515    0.8755 C   0  0  0  0  0  0  0  0  0  0  0  0
   -0.1579    0.4451    0.3973 N   0  0  0  0  0  0  0  0  0  0  0  0
    1.6275   -0.0644    1.9923 C   0  0  0  0  0  0  0  0  0  0  0  0
    3.0103   -0.5427    1.6397 C   0  0  0  0  0  0  0  0  0  0  0  0
    3.2411   -1.8692    1.2885 C   0  0  0  0  0  0  0  0  0  0  0  0
    4.5340   -2.2543    0.9459 C   0  0  0  0  0  0  0  0  0  0  0  0
    5.5546   -1.3111    0.9590 C   0  0  0  0  0  0  0  0  0  0  0  0
    5.2394   -0.0106    1.3124 C   0  0  0  0  0  0  0  0  0  0  0  0
    3.9936    0.3972    1.6456 N   0  0  0  0  0  0  0  0  0  0  0  0
   -1.6035   -1.4851   -0.8367 H   0  0  0  0  0  0  0  0  0  0  0  0
   -2.0508   -1.2057   -2.5208 H   0  0  0  0  0  0  0  0  0  0  0  0
   -4.4008   -1.8844   -2.0243 H   0  0  0  0  0  0  0  0  0  0  0  0
   -3.2783   -3.1341   -1.4757 H   0  0  0  0  0  0  0  0  0  0  0  0
   -5.0171   -0.7465    1.3467 H   0  0  0  0  0  0  0  0  0  0  0  0
   -5.4341   -0.4663   -0.3475 H   0  0  0  0  0  0  0  0  0  0  0  0
   -3.8904    1.3198    0.4625 H   0  0  0  0  0  0  0  0  0  0  0  0
   -2.7542    0.0942    1.0293 H   0  0  0  0  0  0  0  0  0  0  0  0
   -3.6028    0.5793   -1.8604 H   0  0  0  0  0  0  0  0  0  0  0  0
   -0.5482    3.7582   -2.7226 H   0  0  0  0  0  0  0  0  0  0  0  0
    2.7159    1.9506    0.8133 H   0  0  0  0  0  0  0  0  0  0  0  0
    1.6841    0.5669    2.8873 H   0  0  0  0  0  0  0  0  0  0  0  0
    0.9714   -0.9084    2.2338 H   0  0  0  0  0  0  0  0  0  0  0  0
    2.4340   -2.5952    1.2765 H   0  0  0  0  0  0  0  0  0  0  0  0
    4.7432   -3.2841    0.6692 H   0  0  0  0  0  0  0  0  0  0  0  0
    6.5713   -1.5830    0.6979 H   0  0  0  0  0  0  0  0  0  0  0  0
    6.0036    0.7615    1.3358 H   0  0  0  0  0  0  0  0  0  0  0  0
  1  2  1  0
  2  3  1  0
  3  4  1  0
  4  5  1  0
  5  6  1  0
  6  7  1  0
  7  8  1  0
  8  9  2  0
  9 10  1  0
 10 11  2  0
  9 12  1  0
 12 13  2  0
 12 14  1  0
 14 15  1  0
 15 16  2  0
 15 17  1  0
 17 18  1  0
 18 19  2  0
 19 20  1  0
 20 21  2  0
 21 22  1  0
 22 23  2  0
  6  1  1  0
 11  7  1  0
 16  8  1  0
 23 18  1  0
  1 24  1  0
  1 25  1  0
  2 26  1  0
  2 27  1  0
  4 28  1  0
  4 29  1  0
  5 30  1  0
  5 31  1  0
  6 32  1  0
 10 33  1  0
 14 34  1  0
 17 35  1  0
 17 36  1  0
 19 37  1  0
 20 38  1  0
 21 39  1  0
 22 40  1  0
M  END
>  <SMILES>  (1) 
C1COCCC1N2C3=C(C=N2)C(=O)NC(=N3)CC4=CC=CC=N4

$$$$
