CHRNA7_encenicline__hybrid_B_face_seed20260825_ex32__pose01
     RDKit          3D

 38 41  0  0  0  0  0  0  0  0999 V2000
  143.8780  141.2730   95.6080 O   0  0  0  0  0  0  0  0  0  0  0  0
  142.8540  140.9610   95.1030 C   0  0  0  0  0  0  0  0  0  0  0  0
  142.8570  140.3230   93.8010 N   0  0  0  0  0  0  0  0  0  0  0  0
  144.1450  140.0730   93.1160 C   0  0  1  0  0  0  0  0  0  0  0  0
  144.6130  138.6300   93.3870 C   0  0  0  0  0  0  0  0  0  0  0  0
  144.7750  137.9170   92.1960 N   0  0  0  0  0  0  0  0  0  0  0  0
  145.6850  138.5510   91.3780 C   0  0  0  0  0  0  0  0  0  0  0  0
  145.2390  139.9420   91.0380 C   0  0  0  0  0  0  0  0  0  0  0  0
  143.9850  140.2370   91.6740 C   0  0  0  0  0  0  0  0  0  0  0  0
  142.9940  139.2690   91.2090 C   0  0  0  0  0  0  0  0  0  0  0  0
  143.5310  137.8220   91.5260 C   0  0  0  0  0  0  0  0  0  0  0  0
  141.5350  141.2320   95.8350 C   0  0  0  0  0  0  0  0  0  0  0  0
  141.2720  142.2990   96.6250 C   0  0  0  0  0  0  0  0  0  0  0  0
  139.9840  142.4190   97.2450 C   0  0  0  0  0  0  0  0  0  0  0  0
  139.5620  143.4320   98.0650 C   0  0  0  0  0  0  0  0  0  0  0  0
  138.2730  143.4090   98.5970 C   0  0  0  0  0  0  0  0  0  0  0  0
  137.4050  142.3460   98.2920 C   0  0  0  0  0  0  0  0  0  0  0  0
  137.8290  141.3090   97.4550 C   0  0  0  0  0  0  0  0  0  0  0  0
  136.7240  139.9650   97.0700 Cl  0  0  0  0  0  0  0  0  0  0  0  0
  139.0990  141.3300   96.9300 C   0  0  0  0  0  0  0  0  0  0  0  0
  140.0870  140.2660   95.8360 S   0  0  0  0  0  0  0  0  0  0  0  0
  142.0100  140.0590   93.3760 H   0  0  0  0  0  0  0  0  0  0  0  0
  144.8857  140.7908   93.4983 H   0  0  0  0  0  0  0  0  0  0  0  0
  145.5744  138.6593   93.9208 H   0  0  0  0  0  0  0  0  0  0  0  0
  143.8469  138.1244   93.9931 H   0  0  0  0  0  0  0  0  0  0  0  0
  146.6551  138.6023   91.8940 H   0  0  0  0  0  0  0  0  0  0  0  0
  145.7697  137.9765   90.4438 H   0  0  0  0  0  0  0  0  0  0  0  0
  145.9977  140.6600   91.3828 H   0  0  0  0  0  0  0  0  0  0  0  0
  145.1123  140.0190   89.9480 H   0  0  0  0  0  0  0  0  0  0  0  0
  143.6665  141.2628   91.4367 H   0  0  0  0  0  0  0  0  0  0  0  0
  142.0394  139.4341   91.7301 H   0  0  0  0  0  0  0  0  0  0  0  0
  142.8294  139.3842   90.1275 H   0  0  0  0  0  0  0  0  0  0  0  0
  142.8087  137.2949   92.1667 H   0  0  0  0  0  0  0  0  0  0  0  0
  143.6619  137.2652   90.5864 H   0  0  0  0  0  0  0  0  0  0  0  0
  142.0403  143.0686   96.7904 H   0  0  0  0  0  0  0  0  0  0  0  0
  140.2404  144.2643   98.3040 H   0  0  0  0  0  0  0  0  0  0  0  0
  137.9354  144.2229   99.2555 H   0  0  0  0  0  0  0  0  0  0  0  0
  136.3889  142.3299   98.7131 H   0  0  0  0  0  0  0  0  0  0  0  0
  1  2  2  0
  2  3  1  0
  3  4  1  0
  4  5  1  0
  5  6  1  0
  6  7  1  0
  7  8  1  0
  8  9  1  0
  9 10  1  0
 10 11  1  0
  2 12  1  0
 12 13  2  0
 13 14  1  0
 14 15  2  0
 15 16  1  0
 16 17  2  0
 17 18  1  0
 18 19  1  0
 18 20  2  0
 20 21  1  0
  9  4  1  0
 21 12  1  0
 11  6  1  0
 20 14  1  0
  3 22  1  0
  4 23  1  1
  5 24  1  0
  5 25  1  0
  7 26  1  0
  7 27  1  0
  8 28  1  0
  8 29  1  0
  9 30  1  0
 10 31  1  0
 10 32  1  0
 11 33  1  0
 11 34  1  0
 13 35  1  0
 15 36  1  0
 16 37  1  0
 17 38  1  0
M  END
>  <meeko>  (1)
{"is_sidechain": false}

>  <source_group>  (1)
CHRFAM7A at B face

>  <source_system>  (1)
CHRNA7_encenicline

>  <source_run>  (1)
hybrid_B_face_seed20260825_ex32

>  <source_seed>  (1)
20260825

>  <vina_pose_rank>  (1)
1

>  <vina_affinity_kcal_mol>  (1)
-6.242

>  <vina_rmsd_to_crystal_angstrom>  (1)
8.6501999999999999

$$$$
CHRNA7_encenicline__hybrid_B_face_seed20260825_ex32__pose02
     RDKit          3D

 38 41  0  0  0  0  0  0  0  0999 V2000
  146.4820  144.6200   93.6520 O   0  0  0  0  0  0  0  0  0  0  0  0
  146.6080  143.6110   94.2590 C   0  0  0  0  0  0  0  0  0  0  0  0
  147.8970  143.2690   94.8290 N   0  0  0  0  0  0  0  0  0  0  0  0
  149.0430  144.1880   94.6410 C   0  0  1  0  0  0  0  0  0  0  0  0
  149.4520  144.8020   95.9950 C   0  0  0  0  0  0  0  0  0  0  0  0
  150.7840  144.5120   96.3000 N   0  0  0  0  0  0  0  0  0  0  0  0
  151.6170  144.9840   95.3090 C   0  0  0  0  0  0  0  0  0  0  0  0
  151.2930  144.3650   93.9810 C   0  0  0  0  0  0  0  0  0  0  0  0
  150.1880  143.4570   94.1070 C   0  0  0  0  0  0  0  0  0  0  0  0
  150.5550  142.4160   95.0640 C   0  0  0  0  0  0  0  0  0  0  0  0
  150.9510  143.1100   96.4220 C   0  0  0  0  0  0  0  0  0  0  0  0
  145.4050  142.6790   94.4380 C   0  0  0  0  0  0  0  0  0  0  0  0
  144.3480  142.8990   95.2540 C   0  0  0  0  0  0  0  0  0  0  0  0
  143.2900  141.9310   95.3150 C   0  0  0  0  0  0  0  0  0  0  0  0
  142.1580  142.0050   96.0830 C   0  0  0  0  0  0  0  0  0  0  0  0
  141.2140  140.9790   96.0360 C   0  0  0  0  0  0  0  0  0  0  0  0
  141.4240  139.8680   95.2010 C   0  0  0  0  0  0  0  0  0  0  0  0
  142.5770  139.7870   94.4140 C   0  0  0  0  0  0  0  0  0  0  0  0
  142.8370  138.3770   93.3550 Cl  0  0  0  0  0  0  0  0  0  0  0  0
  143.5080  140.7960   94.4580 C   0  0  0  0  0  0  0  0  0  0  0  0
  145.1040  141.1500   93.6630 S   0  0  0  0  0  0  0  0  0  0  0  0
  148.0090  142.4340   95.3370 H   0  0  0  0  0  0  0  0  0  0  0  0
  148.7407  144.9804   93.9405 H   0  0  0  0  0  0  0  0  0  0  0  0
  149.3244  145.8935   95.9471 H   0  0  0  0  0  0  0  0  0  0  0  0
  148.8133  144.3707   96.7799 H   0  0  0  0  0  0  0  0  0  0  0  0
  151.5007  146.0752   95.2332 H   0  0  0  0  0  0  0  0  0  0  0  0
  152.6519  144.7192   95.5713 H   0  0  0  0  0  0  0  0  0  0  0  0
  151.0301  145.1585   93.2660 H   0  0  0  0  0  0  0  0  0  0  0  0
  152.1720  143.8090   93.6231 H   0  0  0  0  0  0  0  0  0  0  0  0
  149.9405  143.0165   93.1299 H   0  0  0  0  0  0  0  0  0  0  0  0
  149.7010  141.7418   95.2260 H   0  0  0  0  0  0  0  0  0  0  0  0
  151.4006  141.8276   94.6783 H   0  0  0  0  0  0  0  0  0  0  0  0
  150.3059  142.7324   97.2290 H   0  0  0  0  0  0  0  0  0  0  0  0
  152.0015  142.8841   96.6576 H   0  0  0  0  0  0  0  0  0  0  0  0
  144.3001  143.8121   95.8655 H   0  0  0  0  0  0  0  0  0  0  0  0
  141.9933  142.8739   96.7371 H   0  0  0  0  0  0  0  0  0  0  0  0
  140.3051  141.0395   96.6526 H   0  0  0  0  0  0  0  0  0  0  0  0
  140.6789  139.0596   95.1665 H   0  0  0  0  0  0  0  0  0  0  0  0
  1  2  2  0
  2  3  1  0
  3  4  1  0
  4  5  1  0
  5  6  1  0
  6  7  1  0
  7  8  1  0
  8  9  1  0
  9 10  1  0
 10 11  1  0
  2 12  1  0
 12 13  2  0
 13 14  1  0
 14 15  2  0
 15 16  1  0
 16 17  2  0
 17 18  1  0
 18 19  1  0
 18 20  2  0
 20 21  1  0
  9  4  1  0
 21 12  1  0
 11  6  1  0
 20 14  1  0
  3 22  1  0
  4 23  1  6
  5 24  1  0
  5 25  1  0
  7 26  1  0
  7 27  1  0
  8 28  1  0
  8 29  1  0
  9 30  1  0
 10 31  1  0
 10 32  1  0
 11 33  1  0
 11 34  1  0
 13 35  1  0
 15 36  1  0
 16 37  1  0
 17 38  1  0
M  END
>  <meeko>  (2)
{"is_sidechain": false}

>  <source_group>  (2)
CHRFAM7A at B face

>  <source_system>  (2)
CHRNA7_encenicline

>  <source_run>  (2)
hybrid_B_face_seed20260825_ex32

>  <source_seed>  (2)
20260825

>  <vina_pose_rank>  (2)
2

>  <vina_affinity_kcal_mol>  (2)
-5.8319999999999999

>  <vina_rmsd_to_crystal_angstrom>  (2)
9.9174000000000007

$$$$
CHRNA7_encenicline__hybrid_B_face_seed20260825_ex32__pose03
     RDKit          3D

 38 41  0  0  0  0  0  0  0  0999 V2000
  146.7960  144.2210   93.5110 O   0  0  0  0  0  0  0  0  0  0  0  0
  146.2930  143.9430   94.5470 C   0  0  0  0  0  0  0  0  0  0  0  0
  146.6990  144.6370   95.7540 N   0  0  0  0  0  0  0  0  0  0  0  0
  147.7430  145.6840   95.6760 C   0  0  1  0  0  0  0  0  0  0  0  0
  147.0860  147.0790   95.6360 C   0  0  0  0  0  0  0  0  0  0  0  0
  147.5200  147.8730   96.7000 N   0  0  0  0  0  0  0  0  0  0  0  0
  148.8910  148.0080   96.6690 C   0  0  0  0  0  0  0  0  0  0  0  0
  149.5740  146.6760   96.7670 C   0  0  0  0  0  0  0  0  0  0  0  0
  148.6050  145.6200   96.8530 C   0  0  0  0  0  0  0  0  0  0  0  0
  147.7810  145.8450   98.0380 C   0  0  0  0  0  0  0  0  0  0  0  0
  147.1360  147.2780   97.9270 C   0  0  0  0  0  0  0  0  0  0  0  0
  145.2150  142.8550   94.5990 C   0  0  0  0  0  0  0  0  0  0  0  0
  144.1090  142.8730   95.3780 C   0  0  0  0  0  0  0  0  0  0  0  0
  143.1840  141.7780   95.3160 C   0  0  0  0  0  0  0  0  0  0  0  0
  142.0240  141.6460   96.0330 C   0  0  0  0  0  0  0  0  0  0  0  0
  141.2230  140.5150   95.8640 C   0  0  0  0  0  0  0  0  0  0  0  0
  141.6070  139.5120   94.9580 C   0  0  0  0  0  0  0  0  0  0  0  0
  142.7890  139.6410   94.2220 C   0  0  0  0  0  0  0  0  0  0  0  0
  143.2680  138.3650   93.0730 Cl  0  0  0  0  0  0  0  0  0  0  0  0
  143.5790  140.7530   94.3870 C   0  0  0  0  0  0  0  0  0  0  0  0
  145.1440  141.3680   93.6960 S   0  0  0  0  0  0  0  0  0  0  0  0
  146.2840  144.4140   96.6180 H   0  0  0  0  0  0  0  0  0  0  0  0
  148.3350  145.5161   94.7643 H   0  0  0  0  0  0  0  0  0  0  0  0
  147.3498  147.5727   94.6891 H   0  0  0  0  0  0  0  0  0  0  0  0
  145.9963  146.9530   95.7176 H   0  0  0  0  0  0  0  0  0  0  0  0
  149.1819  148.4908   95.7244 H   0  0  0  0  0  0  0  0  0  0  0  0
  149.1985  148.6192   97.5304 H   0  0  0  0  0  0  0  0  0  0  0  0
  150.1985  146.5227   95.8745 H   0  0  0  0  0  0  0  0  0  0  0  0
  150.1979  146.6615   97.6729 H   0  0  0  0  0  0  0  0  0  0  0  0
  149.1070  144.6429   96.9102 H   0  0  0  0  0  0  0  0  0  0  0  0
  146.9889  145.0836   98.0903 H   0  0  0  0  0  0  0  0  0  0  0  0
  148.3970  145.7760   98.9467 H   0  0  0  0  0  0  0  0  0  0  0  0
  146.0401  147.1912   97.9657 H   0  0  0  0  0  0  0  0  0  0  0  0
  147.4831  147.9030   98.7630 H   0  0  0  0  0  0  0  0  0  0  0  0
  143.9204  143.7204   96.0535 H   0  0  0  0  0  0  0  0  0  0  0  0
  141.7236  142.4314   96.7421 H   0  0  0  0  0  0  0  0  0  0  0  0
  140.2918  140.4092   96.4398 H   0  0  0  0  0  0  0  0  0  0  0  0
  140.9750  138.6213   94.8271 H   0  0  0  0  0  0  0  0  0  0  0  0
  1  2  2  0
  2  3  1  0
  3  4  1  0
  4  5  1  0
  5  6  1  0
  6  7  1  0
  7  8  1  0
  8  9  1  0
  9 10  1  0
 10 11  1  0
  2 12  1  0
 12 13  2  0
 13 14  1  0
 14 15  2  0
 15 16  1  0
 16 17  2  0
 17 18  1  0
 18 19  1  0
 18 20  2  0
 20 21  1  0
  9  4  1  0
 21 12  1  0
 11  6  1  0
 20 14  1  0
  3 22  1  0
  4 23  1  6
  5 24  1  0
  5 25  1  0
  7 26  1  0
  7 27  1  0
  8 28  1  0
  8 29  1  0
  9 30  1  0
 10 31  1  0
 10 32  1  0
 11 33  1  0
 11 34  1  0
 13 35  1  0
 15 36  1  0
 16 37  1  0
 17 38  1  0
M  END
>  <meeko>  (3)
{"is_sidechain": false}

>  <source_group>  (3)
CHRFAM7A at B face

>  <source_system>  (3)
CHRNA7_encenicline

>  <source_run>  (3)
hybrid_B_face_seed20260825_ex32

>  <source_seed>  (3)
20260825

>  <vina_pose_rank>  (3)
3

>  <vina_affinity_kcal_mol>  (3)
-5.71

>  <vina_rmsd_to_crystal_angstrom>  (3)
9.8394999999999992

$$$$
CHRNA7_encenicline__hybrid_B_face_seed20260825_ex32__pose04
     RDKit          3D

 38 41  0  0  0  0  0  0  0  0999 V2000
  140.9800  141.2160   89.1110 O   0  0  0  0  0  0  0  0  0  0  0  0
  141.5220  140.2170   88.7770 C   0  0  0  0  0  0  0  0  0  0  0  0
  142.5890  139.6700   89.5920 N   0  0  0  0  0  0  0  0  0  0  0  0
  142.9910  140.3710   90.8320 C   0  0  1  0  0  0  0  0  0  0  0  0
  142.2340  139.7820   92.0380 C   0  0  0  0  0  0  0  0  0  0  0  0
  143.1200  139.2880   93.0000 N   0  0  0  0  0  0  0  0  0  0  0  0
  143.9660  140.2870   93.4300 C   0  0  0  0  0  0  0  0  0  0  0  0
  144.7700  140.8500   92.2950 C   0  0  0  0  0  0  0  0  0  0  0  0
  144.4230  140.1980   91.0630 C   0  0  0  0  0  0  0  0  0  0  0  0
  144.6960  138.7700   91.2050 C   0  0  0  0  0  0  0  0  0  0  0  0
  143.8850  138.2330   92.4460 C   0  0  0  0  0  0  0  0  0  0  0  0
  141.0850  139.5110   87.4880 C   0  0  0  0  0  0  0  0  0  0  0  0
  141.7970  139.4490   86.3400 C   0  0  0  0  0  0  0  0  0  0  0  0
  141.2560  138.7470   85.2110 C   0  0  0  0  0  0  0  0  0  0  0  0
  141.8480  138.5920   83.9850 C   0  0  0  0  0  0  0  0  0  0  0  0
  141.1940  137.8800   82.9790 C   0  0  0  0  0  0  0  0  0  0  0  0
  139.9270  137.3220   83.2230 C   0  0  0  0  0  0  0  0  0  0  0  0
  139.3180  137.4760   84.4730 C   0  0  0  0  0  0  0  0  0  0  0  0
  137.7120  136.7640   84.7770 Cl  0  0  0  0  0  0  0  0  0  0  0  0
  139.9600  138.1770   85.4650 C   0  0  0  0  0  0  0  0  0  0  0  0
  139.6080  138.6400   87.1870 S   0  0  0  0  0  0  0  0  0  0  0  0
  143.0430  138.8390   89.3230 H   0  0  0  0  0  0  0  0  0  0  0  0
  142.7527  141.4389   90.7191 H   0  0  0  0  0  0  0  0  0  0  0  0
  141.6144  140.5695   92.4919 H   0  0  0  0  0  0  0  0  0  0  0  0
  141.6070  138.9508   91.6830 H   0  0  0  0  0  0  0  0  0  0  0  0
  143.3681  141.0934   93.8796 H   0  0  0  0  0  0  0  0  0  0  0  0
  144.6609  139.8586   94.1673 H   0  0  0  0  0  0  0  0  0  0  0  0
  144.5652  141.9270   92.2051 H   0  0  0  0  0  0  0  0  0  0  0  0
  145.8383  140.6837   92.4978 H   0  0  0  0  0  0  0  0  0  0  0  0
  145.0008  140.6223   90.2287 H   0  0  0  0  0  0  0  0  0  0  0  0
  144.3797  138.2384   90.2954 H   0  0  0  0  0  0  0  0  0  0  0  0
  145.7729  138.6026   91.3543 H   0  0  0  0  0  0  0  0  0  0  0  0
  143.2140  137.4232   92.1234 H   0  0  0  0  0  0  0  0  0  0  0  0
  144.5840  137.8488   93.2035 H   0  0  0  0  0  0  0  0  0  0  0  0
  142.7826  139.9326   86.2720 H   0  0  0  0  0  0  0  0  0  0  0  0
  142.8392  139.0290   83.7939 H   0  0  0  0  0  0  0  0  0  0  0  0
  141.6697  137.7553   81.9951 H   0  0  0  0  0  0  0  0  0  0  0  0
  139.4125  136.7622   82.4281 H   0  0  0  0  0  0  0  0  0  0  0  0
  1  2  2  0
  2  3  1  0
  3  4  1  0
  4  5  1  0
  5  6  1  0
  6  7  1  0
  7  8  1  0
  8  9  1  0
  9 10  1  0
 10 11  1  0
  2 12  1  0
 12 13  2  0
 13 14  1  0
 14 15  2  0
 15 16  1  0
 16 17  2  0
 17 18  1  0
 18 19  1  0
 18 20  2  0
 20 21  1  0
  9  4  1  0
 21 12  1  0
 11  6  1  0
 20 14  1  0
  3 22  1  0
  4 23  1  6
  5 24  1  0
  5 25  1  0
  7 26  1  0
  7 27  1  0
  8 28  1  0
  8 29  1  0
  9 30  1  0
 10 31  1  0
 10 32  1  0
 11 33  1  0
 11 34  1  0
 13 35  1  0
 15 36  1  0
 16 37  1  0
 17 38  1  0
M  END
>  <meeko>  (4)
{"is_sidechain": false}

>  <source_group>  (4)
CHRFAM7A at B face

>  <source_system>  (4)
CHRNA7_encenicline

>  <source_run>  (4)
hybrid_B_face_seed20260825_ex32

>  <source_seed>  (4)
20260825

>  <vina_pose_rank>  (4)
4

>  <vina_affinity_kcal_mol>  (4)
-5.6950000000000003

>  <vina_rmsd_to_crystal_angstrom>  (4)
7.2893999999999997

$$$$
CHRNA7_encenicline__hybrid_B_face_seed20260825_ex32__pose05
     RDKit          3D

 38 41  0  0  0  0  0  0  0  0999 V2000
  146.0730  144.8290   95.9910 O   0  0  0  0  0  0  0  0  0  0  0  0
  146.1890  144.2130   94.9860 C   0  0  0  0  0  0  0  0  0  0  0  0
  147.1760  144.6160   94.0040 N   0  0  0  0  0  0  0  0  0  0  0  0
  148.0280  145.7970   94.2700 C   0  0  1  0  0  0  0  0  0  0  0  0
  149.3740  145.3490   94.8740 C   0  0  0  0  0  0  0  0  0  0  0  0
  150.4480  145.7700   94.0850 N   0  0  0  0  0  0  0  0  0  0  0  0
  150.4360  147.1420   93.9510 C   0  0  0  0  0  0  0  0  0  0  0  0
  149.1660  147.6180   93.3100 C   0  0  0  0  0  0  0  0  0  0  0  0
  148.3020  146.5070   93.0240 C   0  0  0  0  0  0  0  0  0  0  0  0
  149.0040  145.5980   92.1210 C   0  0  0  0  0  0  0  0  0  0  0  0
  150.3600  145.1740   92.8030 C   0  0  0  0  0  0  0  0  0  0  0  0
  145.2930  142.9940   94.7370 C   0  0  0  0  0  0  0  0  0  0  0  0
  145.5800  141.9560   93.9180 C   0  0  0  0  0  0  0  0  0  0  0  0
  144.6400  140.8800   93.7880 C   0  0  0  0  0  0  0  0  0  0  0  0
  144.7790  139.7630   93.0070 C   0  0  0  0  0  0  0  0  0  0  0  0
  143.7730  138.7970   92.9820 C   0  0  0  0  0  0  0  0  0  0  0  0
  142.6150  138.9700   93.7600 C   0  0  0  0  0  0  0  0  0  0  0  0
  142.4660  140.1070   94.5600 C   0  0  0  0  0  0  0  0  0  0  0  0
  140.9960  140.3190   95.5460 Cl  0  0  0  0  0  0  0  0  0  0  0  0
  143.4560  141.0600   94.5850 C   0  0  0  0  0  0  0  0  0  0  0  0
  143.7320  142.6490   95.4240 S   0  0  0  0  0  0  0  0  0  0  0  0
  147.2800  144.1080   93.1670 H   0  0  0  0  0  0  0  0  0  0  0  0
  147.4968  146.4563   94.9723 H   0  0  0  0  0  0  0  0  0  0  0  0
  149.4771  145.7812   95.8803 H   0  0  0  0  0  0  0  0  0  0  0  0
  149.3860  144.2500   94.9203 H   0  0  0  0  0  0  0  0  0  0  0  0
  150.5276  147.5997   94.9470 H   0  0  0  0  0  0  0  0  0  0  0  0
  151.2792  147.4345   93.3080 H   0  0  0  0  0  0  0  0  0  0  0  0
  148.6523  148.3099   93.9936 H   0  0  0  0  0  0  0  0  0  0  0  0
  149.4121  148.1300   92.3681 H   0  0  0  0  0  0  0  0  0  0  0  0
  147.3643  146.8581   92.5685 H   0  0  0  0  0  0  0  0  0  0  0  0
  148.3862  144.7070   91.9356 H   0  0  0  0  0  0  0  0  0  0  0  0
  149.2019  146.0956   91.1602 H   0  0  0  0  0  0  0  0  0  0  0  0
  150.3934  144.0792   92.9041 H   0  0  0  0  0  0  0  0  0  0  0  0
  151.2041  145.5098   92.1828 H   0  0  0  0  0  0  0  0  0  0  0  0
  146.5258  141.9372   93.3567 H   0  0  0  0  0  0  0  0  0  0  0  0
  145.6854  139.6277   92.3986 H   0  0  0  0  0  0  0  0  0  0  0  0
  143.8857  137.9008   92.3542 H   0  0  0  0  0  0  0  0  0  0  0  0
  141.8225  138.2074   93.7393 H   0  0  0  0  0  0  0  0  0  0  0  0
  1  2  2  0
  2  3  1  0
  3  4  1  0
  4  5  1  0
  5  6  1  0
  6  7  1  0
  7  8  1  0
  8  9  1  0
  9 10  1  0
 10 11  1  0
  2 12  1  0
 12 13  2  0
 13 14  1  0
 14 15  2  0
 15 16  1  0
 16 17  2  0
 17 18  1  0
 18 19  1  0
 18 20  2  0
 20 21  1  0
  9  4  1  0
 21 12  1  0
 11  6  1  0
 20 14  1  0
  3 22  1  0
  4 23  1  1
  5 24  1  0
  5 25  1  0
  7 26  1  0
  7 27  1  0
  8 28  1  0
  8 29  1  0
  9 30  1  0
 10 31  1  0
 10 32  1  0
 11 33  1  0
 11 34  1  0
 13 35  1  0
 15 36  1  0
 16 37  1  0
 17 38  1  0
M  END
>  <meeko>  (5)
{"is_sidechain": false}

>  <source_group>  (5)
CHRFAM7A at B face

>  <source_system>  (5)
CHRNA7_encenicline

>  <source_run>  (5)
hybrid_B_face_seed20260825_ex32

>  <source_seed>  (5)
20260825

>  <vina_pose_rank>  (5)
5

>  <vina_affinity_kcal_mol>  (5)
-5.6420000000000003

>  <vina_rmsd_to_crystal_angstrom>  (5)
9.3529999999999998

$$$$
CHRNA7_encenicline__hybrid_B_face_seed20260825_ex32__pose06
     RDKit          3D

 38 41  0  0  0  0  0  0  0  0999 V2000
  145.9650  145.2480   94.4440 O   0  0  0  0  0  0  0  0  0  0  0  0
  146.2900  144.1270   94.6420 C   0  0  0  0  0  0  0  0  0  0  0  0
  147.6940  143.8020   94.8000 N   0  0  0  0  0  0  0  0  0  0  0  0
  148.7060  144.8790   94.7080 C   0  0  1  0  0  0  0  0  0  0  0  0
  149.3950  145.0710   96.0740 C   0  0  0  0  0  0  0  0  0  0  0  0
  150.7760  144.8820   95.9750 N   0  0  0  0  0  0  0  0  0  0  0  0
  151.3160  145.7580   95.0590 C   0  0  0  0  0  0  0  0  0  0  0  0
  150.7160  145.5640   93.6970 C   0  0  0  0  0  0  0  0  0  0  0  0
  149.7280  144.5220   93.7280 C   0  0  0  0  0  0  0  0  0  0  0  0
  150.3750  143.2880   94.1670 C   0  0  0  0  0  0  0  0  0  0  0  0
  151.0470  143.5530   95.5680 C   0  0  0  0  0  0  0  0  0  0  0  0
  145.2210  143.0320   94.7330 C   0  0  0  0  0  0  0  0  0  0  0  0
  145.2180  141.8700   94.0410 C   0  0  0  0  0  0  0  0  0  0  0  0
  144.1460  140.9360   94.2340 C   0  0  0  0  0  0  0  0  0  0  0  0
  143.9970  139.7230   93.6160 C   0  0  0  0  0  0  0  0  0  0  0  0
  142.8930  138.9210   93.9070 C   0  0  0  0  0  0  0  0  0  0  0  0
  141.9330  139.3580   94.8350 C   0  0  0  0  0  0  0  0  0  0  0  0
  142.0790  140.5950   95.4700 C   0  0  0  0  0  0  0  0  0  0  0  0
  140.8580  141.1440   96.6480 Cl  0  0  0  0  0  0  0  0  0  0  0  0
  143.1650  141.3870   95.1850 C   0  0  0  0  0  0  0  0  0  0  0  0
  143.7870  143.0100   95.7190 S   0  0  0  0  0  0  0  0  0  0  0  0
  147.9730  142.8730   94.9680 H   0  0  0  0  0  0  0  0  0  0  0  0
  148.1987  145.8068   94.4048 H   0  0  0  0  0  0  0  0  0  0  0  0
  149.1975  146.0911   96.4351 H   0  0  0  0  0  0  0  0  0  0  0  0
  148.9911  144.3260   96.7753 H   0  0  0  0  0  0  0  0  0  0  0  0
  151.1226  146.7884   95.3919 H   0  0  0  0  0  0  0  0  0  0  0  0
  152.3971  145.5662   94.9918 H   0  0  0  0  0  0  0  0  0  0  0  0
  150.2427  146.5025   93.3726 H   0  0  0  0  0  0  0  0  0  0  0  0
  151.5126  145.2791   92.9939 H   0  0  0  0  0  0  0  0  0  0  0  0
  149.2769  144.3909   92.7334 H   0  0  0  0  0  0  0  0  0  0  0  0
  149.6260  142.4877   94.2591 H   0  0  0  0  0  0  0  0  0  0  0  0
  151.1349  142.9772   93.4349 H   0  0  0  0  0  0  0  0  0  0  0  0
  150.6382  142.8512   96.3099 H   0  0  0  0  0  0  0  0  0  0  0  0
  152.1344  143.4075   95.4877 H   0  0  0  0  0  0  0  0  0  0  0  0
  146.0310  141.6427   93.3358 H   0  0  0  0  0  0  0  0  0  0  0  0
  144.7485  139.3806   92.8894 H   0  0  0  0  0  0  0  0  0  0  0  0
  142.7743  137.9469   93.4100 H   0  0  0  0  0  0  0  0  0  0  0  0
  141.0631  138.7245   95.0629 H   0  0  0  0  0  0  0  0  0  0  0  0
  1  2  2  0
  2  3  1  0
  3  4  1  0
  4  5  1  0
  5  6  1  0
  6  7  1  0
  7  8  1  0
  8  9  1  0
  9 10  1  0
 10 11  1  0
  2 12  1  0
 12 13  2  0
 13 14  1  0
 14 15  2  0
 15 16  1  0
 16 17  2  0
 17 18  1  0
 18 19  1  0
 18 20  2  0
 20 21  1  0
  9  4  1  0
 21 12  1  0
 11  6  1  0
 20 14  1  0
  3 22  1  0
  4 23  1  6
  5 24  1  0
  5 25  1  0
  7 26  1  0
  7 27  1  0
  8 28  1  0
  8 29  1  0
  9 30  1  0
 10 31  1  0
 10 32  1  0
 11 33  1  0
 11 34  1  0
 13 35  1  0
 15 36  1  0
 16 37  1  0
 17 38  1  0
M  END
>  <meeko>  (6)
{"is_sidechain": false}

>  <source_group>  (6)
CHRFAM7A at B face

>  <source_system>  (6)
CHRNA7_encenicline

>  <source_run>  (6)
hybrid_B_face_seed20260825_ex32

>  <source_seed>  (6)
20260825

>  <vina_pose_rank>  (6)
6

>  <vina_affinity_kcal_mol>  (6)
-5.5609999999999999

>  <vina_rmsd_to_crystal_angstrom>  (6)
9.8656000000000006

$$$$
CHRNA7_encenicline__hybrid_B_face_seed20260825_ex32__pose07
     RDKit          3D

 38 41  0  0  0  0  0  0  0  0999 V2000
  146.2720  138.7140   90.5190 O   0  0  0  0  0  0  0  0  0  0  0  0
  146.5310  138.7640   91.6740 C   0  0  0  0  0  0  0  0  0  0  0  0
  147.8100  138.2730   92.1480 N   0  0  0  0  0  0  0  0  0  0  0  0
  148.7780  137.7100   91.1790 C   0  0  1  0  0  0  0  0  0  0  0  0
  149.7100  138.8220   90.6610 C   0  0  0  0  0  0  0  0  0  0  0  0
  151.0490  138.5260   90.9290 N   0  0  0  0  0  0  0  0  0  0  0  0
  151.4000  137.3250   90.3520 C   0  0  0  0  0  0  0  0  0  0  0  0
  150.5550  136.2000   90.8750 C   0  0  0  0  0  0  0  0  0  0  0  0
  149.5990  136.6920   91.8270 C   0  0  0  0  0  0  0  0  0  0  0  0
  150.3260  137.3200   92.9280 C   0  0  0  0  0  0  0  0  0  0  0  0
  151.2490  138.4490   92.3290 C   0  0  0  0  0  0  0  0  0  0  0  0
  145.5100  139.3530   92.6550 C   0  0  0  0  0  0  0  0  0  0  0  0
  144.3290  138.7890   93.0010 C   0  0  0  0  0  0  0  0  0  0  0  0
  143.4750  139.4610   93.9380 C   0  0  0  0  0  0  0  0  0  0  0  0
  142.2570  139.0260   94.3900 C   0  0  0  0  0  0  0  0  0  0  0  0
  141.5370  139.7940   95.3060 C   0  0  0  0  0  0  0  0  0  0  0  0
  142.0620  141.0150   95.7650 C   0  0  0  0  0  0  0  0  0  0  0  0
  143.3050  141.4640   95.3070 C   0  0  0  0  0  0  0  0  0  0  0  0
  143.9660  143.0120   95.8940 Cl  0  0  0  0  0  0  0  0  0  0  0  0
  144.0150  140.7090   94.4050 C   0  0  0  0  0  0  0  0  0  0  0  0
  145.6090  140.8470   93.5420 S   0  0  0  0  0  0  0  0  0  0  0  0
  148.0340  138.3140   93.1050 H   0  0  0  0  0  0  0  0  0  0  0  0
  148.2152  137.2669   90.3442 H   0  0  0  0  0  0  0  0  0  0  0  0
  149.5761  138.9248   89.5740 H   0  0  0  0  0  0  0  0  0  0  0  0
  149.4515  139.7598   91.1746 H   0  0  0  0  0  0  0  0  0  0  0  0
  151.2649  137.3979   89.2628 H   0  0  0  0  0  0  0  0  0  0  0  0
  152.4505  137.1145   90.6011 H   0  0  0  0  0  0  0  0  0  0  0  0
  150.0216  135.7276   90.0370 H   0  0  0  0  0  0  0  0  0  0  0  0
  151.2065  135.4654   91.3710 H   0  0  0  0  0  0  0  0  0  0  0  0
  148.9694  135.8696   92.1974 H   0  0  0  0  0  0  0  0  0  0  0  0
  149.6137  137.7608   93.6410 H   0  0  0  0  0  0  0  0  0  0  0  0
  150.9353  136.5719   93.4564 H   0  0  0  0  0  0  0  0  0  0  0  0
  150.9939  139.4147   92.7899 H   0  0  0  0  0  0  0  0  0  0  0  0
  152.3026  138.2115   92.5373 H   0  0  0  0  0  0  0  0  0  0  0  0
  144.0267  137.8242   92.5677 H   0  0  0  0  0  0  0  0  0  0  0  0
  141.8464  138.0709   94.0307 H   0  0  0  0  0  0  0  0  0  0  0  0
  140.5592  139.4444   95.6688 H   0  0  0  0  0  0  0  0  0  0  0  0
  141.4931  141.6193   96.4869 H   0  0  0  0  0  0  0  0  0  0  0  0
  1  2  2  0
  2  3  1  0
  3  4  1  0
  4  5  1  0
  5  6  1  0
  6  7  1  0
  7  8  1  0
  8  9  1  0
  9 10  1  0
 10 11  1  0
  2 12  1  0
 12 13  2  0
 13 14  1  0
 14 15  2  0
 15 16  1  0
 16 17  2  0
 17 18  1  0
 18 19  1  0
 18 20  2  0
 20 21  1  0
  9  4  1  0
 21 12  1  0
 11  6  1  0
 20 14  1  0
  3 22  1  0
  4 23  1  6
  5 24  1  0
  5 25  1  0
  7 26  1  0
  7 27  1  0
  8 28  1  0
  8 29  1  0
  9 30  1  0
 10 31  1  0
 10 32  1  0
 11 33  1  0
 11 34  1  0
 13 35  1  0
 15 36  1  0
 16 37  1  0
 17 38  1  0
M  END
>  <meeko>  (7)
{"is_sidechain": false}

>  <source_group>  (7)
CHRFAM7A at B face

>  <source_system>  (7)
CHRNA7_encenicline

>  <source_run>  (7)
hybrid_B_face_seed20260825_ex32

>  <source_seed>  (7)
20260825

>  <vina_pose_rank>  (7)
7

>  <vina_affinity_kcal_mol>  (7)
-5.5410000000000004

>  <vina_rmsd_to_crystal_angstrom>  (7)
8.5960999999999999

$$$$
CHRNA7_encenicline__hybrid_B_face_seed20260825_ex32__pose08
     RDKit          3D

 38 41  0  0  0  0  0  0  0  0999 V2000
  146.0120  145.3240   95.5730 O   0  0  0  0  0  0  0  0  0  0  0  0
  146.1920  144.5010   94.7400 C   0  0  0  0  0  0  0  0  0  0  0  0
  147.2610  144.6730   93.7760 N   0  0  0  0  0  0  0  0  0  0  0  0
  148.1140  145.8820   93.8420 C   0  0  1  0  0  0  0  0  0  0  0  0
  149.3390  145.6120   94.7380 C   0  0  0  0  0  0  0  0  0  0  0  0
  150.5320  145.8040   94.0360 N   0  0  0  0  0  0  0  0  0  0  0  0
  150.5950  147.0890   93.5420 C   0  0  0  0  0  0  0  0  0  0  0  0
  149.4520  147.3760   92.6140 C   0  0  0  0  0  0  0  0  0  0  0  0
  148.5930  146.2300   92.5080 C   0  0  0  0  0  0  0  0  0  0  0  0
  149.3790  145.1110   91.9950 C   0  0  0  0  0  0  0  0  0  0  0  0
  150.6040  144.8850   92.9600 C   0  0  0  0  0  0  0  0  0  0  0  0
  145.2940  143.2600   94.6950 C   0  0  0  0  0  0  0  0  0  0  0  0
  144.1350  143.0960   95.3750 C   0  0  0  0  0  0  0  0  0  0  0  0
  143.3990  141.8730   95.2300 C   0  0  0  0  0  0  0  0  0  0  0  0
  142.2160  141.5540   95.8420 C   0  0  0  0  0  0  0  0  0  0  0  0
  141.6160  140.3170   95.6020 C   0  0  0  0  0  0  0  0  0  0  0  0
  142.2260  139.3980   94.7310 C   0  0  0  0  0  0  0  0  0  0  0  0
  143.4330  139.7180   94.1020 C   0  0  0  0  0  0  0  0  0  0  0  0
  144.2010  138.5490   92.9960 Cl  0  0  0  0  0  0  0  0  0  0  0  0
  144.0250  140.9350   94.3370 C   0  0  0  0  0  0  0  0  0  0  0  0
  145.5310  141.7940   93.7870 S   0  0  0  0  0  0  0  0  0  0  0  0
  147.4180  143.9930   93.0830 H   0  0  0  0  0  0  0  0  0  0  0  0
  147.5149  146.7068   94.2553 H   0  0  0  0  0  0  0  0  0  0  0  0
  149.3136  146.2990   95.5967 H   0  0  0  0  0  0  0  0  0  0  0  0
  149.2989  144.5660   95.0761 H   0  0  0  0  0  0  0  0  0  0  0  0
  150.5599  147.7976   94.3826 H   0  0  0  0  0  0  0  0  0  0  0  0
  151.5335  147.1973   92.9786 H   0  0  0  0  0  0  0  0  0  0  0  0
  148.8742  148.2273   93.0032 H   0  0  0  0  0  0  0  0  0  0  0  0
  149.8527  147.6148   91.6178 H   0  0  0  0  0  0  0  0  0  0  0  0
  147.7458  146.4466   91.8406 H   0  0  0  0  0  0  0  0  0  0  0  0
  148.7580  144.2036   91.9631 H   0  0  0  0  0  0  0  0  0  0  0  0
  149.7333  145.3311   90.9771 H   0  0  0  0  0  0  0  0  0  0  0  0
  150.5773  143.8577   93.3525 H   0  0  0  0  0  0  0  0  0  0  0  0
  151.5415  145.0409   92.4060 H   0  0  0  0  0  0  0  0  0  0  0  0
  143.7606  143.8938   96.0333 H   0  0  0  0  0  0  0  0  0  0  0  0
  141.7383  142.2734   96.5233 H   0  0  0  0  0  0  0  0  0  0  0  0
  140.6661  140.0614   96.0943 H   0  0  0  0  0  0  0  0  0  0  0  0
  141.7520  138.4232   94.5435 H   0  0  0  0  0  0  0  0  0  0  0  0
  1  2  2  0
  2  3  1  0
  3  4  1  0
  4  5  1  0
  5  6  1  0
  6  7  1  0
  7  8  1  0
  8  9  1  0
  9 10  1  0
 10 11  1  0
  2 12  1  0
 12 13  2  0
 13 14  1  0
 14 15  2  0
 15 16  1  0
 16 17  2  0
 17 18  1  0
 18 19  1  0
 18 20  2  0
 20 21  1  0
  9  4  1  0
 21 12  1  0
 11  6  1  0
 20 14  1  0
  3 22  1  0
  4 23  1  1
  5 24  1  0
  5 25  1  0
  7 26  1  0
  7 27  1  0
  8 28  1  0
  8 29  1  0
  9 30  1  0
 10 31  1  0
 10 32  1  0
 11 33  1  0
 11 34  1  0
 13 35  1  0
 15 36  1  0
 16 37  1  0
 17 38  1  0
M  END
>  <meeko>  (8)
{"is_sidechain": false}

>  <source_group>  (8)
CHRFAM7A at B face

>  <source_system>  (8)
CHRNA7_encenicline

>  <source_run>  (8)
hybrid_B_face_seed20260825_ex32

>  <source_seed>  (8)
20260825

>  <vina_pose_rank>  (8)
8

>  <vina_affinity_kcal_mol>  (8)
-5.4020000000000001

>  <vina_rmsd_to_crystal_angstrom>  (8)
9.4292999999999996

$$$$
CHRNA7_encenicline__hybrid_B_face_seed20260825_ex32__pose09
     RDKit          3D

 38 41  0  0  0  0  0  0  0  0999 V2000
  147.4760  138.5450   90.0840 O   0  0  0  0  0  0  0  0  0  0  0  0
  147.7240  138.2660   91.2080 C   0  0  0  0  0  0  0  0  0  0  0  0
  146.6730  138.2970   92.2070 N   0  0  0  0  0  0  0  0  0  0  0  0
  145.2990  138.6800   91.8070 C   0  0  1  0  0  0  0  0  0  0  0  0
  144.2710  137.9510   92.6930 C   0  0  0  0  0  0  0  0  0  0  0  0
  143.4510  138.8580   93.3690 N   0  0  0  0  0  0  0  0  0  0  0  0
  142.7930  139.6710   92.4720 C   0  0  0  0  0  0  0  0  0  0  0  0
  143.7590  140.4480   91.6270 C   0  0  0  0  0  0  0  0  0  0  0  0
  145.1120  140.1180   91.9790 C   0  0  0  0  0  0  0  0  0  0  0  0
  145.3130  140.4420   93.3890 C   0  0  0  0  0  0  0  0  0  0  0  0
  144.2380  139.6570   94.2340 C   0  0  0  0  0  0  0  0  0  0  0  0
  149.1540  137.8730   91.5940 C   0  0  0  0  0  0  0  0  0  0  0  0
  149.8500  136.8270   91.0920 C   0  0  0  0  0  0  0  0  0  0  0  0
  151.1880  136.5830   91.5510 C   0  0  0  0  0  0  0  0  0  0  0  0
  152.0200  135.5750   91.1440 C   0  0  0  0  0  0  0  0  0  0  0  0
  153.3020  135.4650   91.6850 C   0  0  0  0  0  0  0  0  0  0  0  0
  153.7380  136.3900   92.6490 C   0  0  0  0  0  0  0  0  0  0  0  0
  152.8940  137.4230   93.0680 C   0  0  0  0  0  0  0  0  0  0  0  0
  153.4540  138.5940   94.2900 Cl  0  0  0  0  0  0  0  0  0  0  0  0
  151.6310  137.5320   92.5370 C   0  0  0  0  0  0  0  0  0  0  0  0
  150.2110  138.6480   92.7400 S   0  0  0  0  0  0  0  0  0  0  0  0
  146.8700  138.0640   93.1420 H   0  0  0  0  0  0  0  0  0  0  0  0
  145.1543  138.4029   90.7524 H   0  0  0  0  0  0  0  0  0  0  0  0
  143.6453  137.3055   92.0592 H   0  0  0  0  0  0  0  0  0  0  0  0
  144.8163  137.3532   93.4382 H   0  0  0  0  0  0  0  0  0  0  0  0
  142.1658  139.0479   91.8175 H   0  0  0  0  0  0  0  0  0  0  0  0
  142.1770  140.3846   93.0388 H   0  0  0  0  0  0  0  0  0  0  0  0
  143.5907  140.2045   90.5676 H   0  0  0  0  0  0  0  0  0  0  0  0
  143.5982  141.5225   91.7987 H   0  0  0  0  0  0  0  0  0  0  0  0
  145.8198  140.6761   91.3484 H   0  0  0  0  0  0  0  0  0  0  0  0
  146.3240  140.1398   93.6999 H   0  0  0  0  0  0  0  0  0  0  0  0
  145.2045  141.5249   93.5488 H   0  0  0  0  0  0  0  0  0  0  0  0
  144.7462  139.0133   94.9671 H   0  0  0  0  0  0  0  0  0  0  0  0
  143.5914  140.3733   94.7620 H   0  0  0  0  0  0  0  0  0  0  0  0
  149.3940  136.1686   90.3379 H   0  0  0  0  0  0  0  0  0  0  0  0
  151.6779  134.8510   90.3898 H   0  0  0  0  0  0  0  0  0  0  0  0
  153.9703  134.6551   91.3571 H   0  0  0  0  0  0  0  0  0  0  0  0
  154.7479  136.3009   93.0759 H   0  0  0  0  0  0  0  0  0  0  0  0
  1  2  2  0
  2  3  1  0
  3  4  1  0
  4  5  1  0
  5  6  1  0
  6  7  1  0
  7  8  1  0
  8  9  1  0
  9 10  1  0
 10 11  1  0
  2 12  1  0
 12 13  2  0
 13 14  1  0
 14 15  2  0
 15 16  1  0
 16 17  2  0
 17 18  1  0
 18 19  1  0
 18 20  2  0
 20 21  1  0
  9  4  1  0
 21 12  1  0
 11  6  1  0
 20 14  1  0
  3 22  1  0
  4 23  1  6
  5 24  1  0
  5 25  1  0
  7 26  1  0
  7 27  1  0
  8 28  1  0
  8 29  1  0
  9 30  1  0
 10 31  1  0
 10 32  1  0
 11 33  1  0
 11 34  1  0
 13 35  1  0
 15 36  1  0
 16 37  1  0
 17 38  1  0
M  END
>  <meeko>  (9)
{"is_sidechain": false}

>  <source_group>  (9)
CHRFAM7A at B face

>  <source_system>  (9)
CHRNA7_encenicline

>  <source_run>  (9)
hybrid_B_face_seed20260825_ex32

>  <source_seed>  (9)
20260825

>  <vina_pose_rank>  (9)
9

>  <vina_affinity_kcal_mol>  (9)
-5.3860000000000001

>  <vina_rmsd_to_crystal_angstrom>  (9)
6.3140000000000001

$$$$
CHRNA7_encenicline__hybrid_B_face_seed20260825_ex32__pose10
     RDKit          3D

 38 41  0  0  0  0  0  0  0  0999 V2000
  148.4840  137.6310   92.2830 O   0  0  0  0  0  0  0  0  0  0  0  0
  147.9460  138.1180   91.3480 C   0  0  0  0  0  0  0  0  0  0  0  0
  148.6560  138.2420   90.0900 N   0  0  0  0  0  0  0  0  0  0  0  0
  150.0520  137.7570   89.9920 C   0  0  1  0  0  0  0  0  0  0  0  0
  150.0780  136.3570   89.3480 C   0  0  0  0  0  0  0  0  0  0  0  0
  150.8550  136.3480   88.1870 N   0  0  0  0  0  0  0  0  0  0  0  0
  152.1430  136.7510   88.4680 C   0  0  0  0  0  0  0  0  0  0  0  0
  152.1700  138.1370   89.0430 C   0  0  0  0  0  0  0  0  0  0  0  0
  150.8370  138.6590   89.1540 C   0  0  0  0  0  0  0  0  0  0  0  0
  150.2390  138.6850   87.8220 C   0  0  0  0  0  0  0  0  0  0  0  0
  150.2900  137.2260   87.2290 C   0  0  0  0  0  0  0  0  0  0  0  0
  146.5000  138.6110   91.4780 C   0  0  0  0  0  0  0  0  0  0  0  0
  145.6980  138.9880   90.4560 C   0  0  0  0  0  0  0  0  0  0  0  0
  144.3600  139.4270   90.7340 C   0  0  0  0  0  0  0  0  0  0  0  0
  143.4270  139.8370   89.8180 C   0  0  0  0  0  0  0  0  0  0  0  0
  142.1610  140.2390   90.2430 C   0  0  0  0  0  0  0  0  0  0  0  0
  141.8410  140.2240   91.6110 C   0  0  0  0  0  0  0  0  0  0  0  0
  142.7880  139.8050   92.5510 C   0  0  0  0  0  0  0  0  0  0  0  0
  142.3750  139.7850   94.2860 Cl  0  0  0  0  0  0  0  0  0  0  0  0
  144.0360  139.4090   92.1350 C   0  0  0  0  0  0  0  0  0  0  0  0
  145.5560  138.8040   92.9280 S   0  0  0  0  0  0  0  0  0  0  0  0
  148.2150  138.6430   89.3080 H   0  0  0  0  0  0  0  0  0  0  0  0
  150.4770  137.7167   91.0058 H   0  0  0  0  0  0  0  0  0  0  0  0
  150.4996  135.6393   90.0671 H   0  0  0  0  0  0  0  0  0  0  0  0
  149.0483  136.0785   89.0795 H   0  0  0  0  0  0  0  0  0  0  0  0
  152.5858  136.0536   89.1943 H   0  0  0  0  0  0  0  0  0  0  0  0
  152.7172  136.7542   87.5298 H   0  0  0  0  0  0  0  0  0  0  0  0
  152.6315  138.1064   90.0410 H   0  0  0  0  0  0  0  0  0  0  0  0
  152.7539  138.7885   88.3763 H   0  0  0  0  0  0  0  0  0  0  0  0
  150.8567  139.6689   89.5896 H   0  0  0  0  0  0  0  0  0  0  0  0
  149.1943  139.0228   87.8897 H   0  0  0  0  0  0  0  0  0  0  0  0
  150.7921  139.3784   87.1714 H   0  0  0  0  0  0  0  0  0  0  0  0
  149.2705  136.8940   86.9831 H   0  0  0  0  0  0  0  0  0  0  0  0
  150.9061  137.2211   86.3177 H   0  0  0  0  0  0  0  0  0  0  0  0
  146.0681  138.9584   89.4206 H   0  0  0  0  0  0  0  0  0  0  0  0
  143.6767  139.8491   88.7468 H   0  0  0  0  0  0  0  0  0  0  0  0
  141.4127  140.5679   89.5069 H   0  0  0  0  0  0  0  0  0  0  0  0
  140.8422  140.5429   91.9438 H   0  0  0  0  0  0  0  0  0  0  0  0
  1  2  2  0
  2  3  1  0
  3  4  1  0
  4  5  1  0
  5  6  1  0
  6  7  1  0
  7  8  1  0
  8  9  1  0
  9 10  1  0
 10 11  1  0
  2 12  1  0
 12 13  2  0
 13 14  1  0
 14 15  2  0
 15 16  1  0
 16 17  2  0
 17 18  1  0
 18 19  1  0
 18 20  2  0
 20 21  1  0
  9  4  1  0
 21 12  1  0
 11  6  1  0
 20 14  1  0
  3 22  1  0
  4 23  1  1
  5 24  1  0
  5 25  1  0
  7 26  1  0
  7 27  1  0
  8 28  1  0
  8 29  1  0
  9 30  1  0
 10 31  1  0
 10 32  1  0
 11 33  1  0
 11 34  1  0
 13 35  1  0
 15 36  1  0
 16 37  1  0
 17 38  1  0
M  END
>  <meeko>  (10)
{"is_sidechain": false}

>  <source_group>  (10)
CHRFAM7A at B face

>  <source_system>  (10)
CHRNA7_encenicline

>  <source_run>  (10)
hybrid_B_face_seed20260825_ex32

>  <source_seed>  (10)
20260825

>  <vina_pose_rank>  (10)
10

>  <vina_affinity_kcal_mol>  (10)
-5.3129999999999997

>  <vina_rmsd_to_crystal_angstrom>  (10)
8.5632999999999999

$$$$
CHRNA7_encenicline__hybrid_B_face_seed20260825_ex32__pose11
     RDKit          3D

 38 41  0  0  0  0  0  0  0  0999 V2000
  151.5820  136.3440   87.3790 O   0  0  0  0  0  0  0  0  0  0  0  0
  150.8190  136.2350   88.2790 C   0  0  0  0  0  0  0  0  0  0  0  0
  149.5130  135.6500   88.0480 N   0  0  0  0  0  0  0  0  0  0  0  0
  149.1470  135.1980   86.6860 C   0  0  1  0  0  0  0  0  0  0  0  0
  148.0680  134.1000   86.7690 C   0  0  0  0  0  0  0  0  0  0  0  0
  146.9150  134.4710   86.0730 N   0  0  0  0  0  0  0  0  0  0  0  0
  147.2130  134.7260   84.7520 C   0  0  0  0  0  0  0  0  0  0  0  0
  148.2180  135.8320   84.6210 C   0  0  0  0  0  0  0  0  0  0  0  0
  148.6040  136.3140   85.9180 C   0  0  0  0  0  0  0  0  0  0  0  0
  147.4100  136.8050   86.6020 C   0  0  0  0  0  0  0  0  0  0  0  0
  146.3570  135.6330   86.6590 C   0  0  0  0  0  0  0  0  0  0  0  0
  151.2240  136.7110   89.6780 C   0  0  0  0  0  0  0  0  0  0  0  0
  152.2200  136.1920   90.4330 C   0  0  0  0  0  0  0  0  0  0  0  0
  152.4850  136.7470   91.7300 C   0  0  0  0  0  0  0  0  0  0  0  0
  153.4520  136.3400   92.6110 C   0  0  0  0  0  0  0  0  0  0  0  0
  153.5880  136.9800   93.8430 C   0  0  0  0  0  0  0  0  0  0  0  0
  152.7330  138.0430   94.1810 C   0  0  0  0  0  0  0  0  0  0  0  0
  151.7450  138.4640   93.2860 C   0  0  0  0  0  0  0  0  0  0  0  0
  150.6640  139.8140   93.7190 Cl  0  0  0  0  0  0  0  0  0  0  0  0
  151.6080  137.8350   92.0720 C   0  0  0  0  0  0  0  0  0  0  0  0
  150.5270  137.9990   90.6190 S   0  0  0  0  0  0  0  0  0  0  0  0
  148.8740  135.5530   88.7910 H   0  0  0  0  0  0  0  0  0  0  0  0
  150.0506  134.8062   86.1960 H   0  0  0  0  0  0  0  0  0  0  0  0
  148.4666  133.1717   86.3339 H   0  0  0  0  0  0  0  0  0  0  0  0
  147.8037  133.9507   87.8263 H   0  0  0  0  0  0  0  0  0  0  0  0
  147.6236  133.8134   84.2952 H   0  0  0  0  0  0  0  0  0  0  0  0
  146.2888  135.0360   84.2423 H   0  0  0  0  0  0  0  0  0  0  0  0
  149.1072  135.4534   84.0956 H   0  0  0  0  0  0  0  0  0  0  0  0
  147.7667  136.6588   84.0528 H   0  0  0  0  0  0  0  0  0  0  0  0
  149.3521  137.1147   85.8221 H   0  0  0  0  0  0  0  0  0  0  0  0
  147.6697  137.1221   87.6228 H   0  0  0  0  0  0  0  0  0  0  0  0
  146.9903  137.6665   86.0619 H   0  0  0  0  0  0  0  0  0  0  0  0
  146.0947  135.4258   87.7070 H   0  0  0  0  0  0  0  0  0  0  0  0
  145.4518  135.9249   86.1064 H   0  0  0  0  0  0  0  0  0  0  0  0
  152.8215  135.3518   90.0559 H   0  0  0  0  0  0  0  0  0  0  0  0
  154.1215  135.5082   92.3468 H   0  0  0  0  0  0  0  0  0  0  0  0
  154.3645  136.6526   94.5500 H   0  0  0  0  0  0  0  0  0  0  0  0
  152.8416  138.5456   95.1534 H   0  0  0  0  0  0  0  0  0  0  0  0
  1  2  2  0
  2  3  1  0
  3  4  1  0
  4  5  1  0
  5  6  1  0
  6  7  1  0
  7  8  1  0
  8  9  1  0
  9 10  1  0
 10 11  1  0
  2 12  1  0
 12 13  2  0
 13 14  1  0
 14 15  2  0
 15 16  1  0
 16 17  2  0
 17 18  1  0
 18 19  1  0
 18 20  2  0
 20 21  1  0
  9  4  1  0
 21 12  1  0
 11  6  1  0
 20 14  1  0
  3 22  1  0
  4 23  1  6
  5 24  1  0
  5 25  1  0
  7 26  1  0
  7 27  1  0
  8 28  1  0
  8 29  1  0
  9 30  1  0
 10 31  1  0
 10 32  1  0
 11 33  1  0
 11 34  1  0
 13 35  1  0
 15 36  1  0
 16 37  1  0
 17 38  1  0
M  END
>  <meeko>  (11)
{"is_sidechain": false}

>  <source_group>  (11)
CHRFAM7A at B face

>  <source_system>  (11)
CHRNA7_encenicline

>  <source_run>  (11)
hybrid_B_face_seed20260825_ex32

>  <source_seed>  (11)
20260825

>  <vina_pose_rank>  (11)
11

>  <vina_affinity_kcal_mol>  (11)
-5.29

>  <vina_rmsd_to_crystal_angstrom>  (11)
8.8389000000000006

$$$$
CHRNA7_encenicline__hybrid_B_face_seed20260825_ex32__pose12
     RDKit          3D

 38 41  0  0  0  0  0  0  0  0999 V2000
  148.0150  143.1180   94.7520 O   0  0  0  0  0  0  0  0  0  0  0  0
  146.9860  143.5940   94.4080 C   0  0  0  0  0  0  0  0  0  0  0  0
  146.9630  144.9290   93.8420 N   0  0  0  0  0  0  0  0  0  0  0  0
  148.2300  145.6830   93.7050 C   0  0  1  0  0  0  0  0  0  0  0  0
  148.0990  146.7300   92.5810 C   0  0  0  0  0  0  0  0  0  0  0  0
  148.3310  148.0210   93.0620 N   0  0  0  0  0  0  0  0  0  0  0  0
  149.5860  148.1040   93.6260 C   0  0  0  0  0  0  0  0  0  0  0  0
  149.7380  147.1420   94.7660 C   0  0  0  0  0  0  0  0  0  0  0  0
  148.5310  146.3850   94.9490 C   0  0  0  0  0  0  0  0  0  0  0  0
  147.4410  147.3170   95.2260 C   0  0  0  0  0  0  0  0  0  0  0  0
  147.3580  148.3490   94.0380 C   0  0  0  0  0  0  0  0  0  0  0  0
  145.6900  142.7900   94.5620 C   0  0  0  0  0  0  0  0  0  0  0  0
  144.6340  143.1310   95.3350 C   0  0  0  0  0  0  0  0  0  0  0  0
  143.4830  142.2750   95.3770 C   0  0  0  0  0  0  0  0  0  0  0  0
  142.3400  142.4780   96.1030 C   0  0  0  0  0  0  0  0  0  0  0  0
  141.3000  141.5500   96.0420 C   0  0  0  0  0  0  0  0  0  0  0  0
  141.4250  140.4060   95.2340 C   0  0  0  0  0  0  0  0  0  0  0  0
  142.5900  140.1940   94.4900 C   0  0  0  0  0  0  0  0  0  0  0  0
  142.7420  138.7420   93.4660 Cl  0  0  0  0  0  0  0  0  0  0  0  0
  143.6150  141.1070   94.5490 C   0  0  0  0  0  0  0  0  0  0  0  0
  145.2640  141.2820   93.8030 S   0  0  0  0  0  0  0  0  0  0  0  0
  146.1130  145.3300   93.5510 H   0  0  0  0  0  0  0  0  0  0  0  0
  149.0341  144.9705   93.4689 H   0  0  0  0  0  0  0  0  0  0  0  0
  148.8324  146.5038   91.7930 H   0  0  0  0  0  0  0  0  0  0  0  0
  147.0746  146.6862   92.1825 H   0  0  0  0  0  0  0  0  0  0  0  0
  150.3393  147.8717   92.8588 H   0  0  0  0  0  0  0  0  0  0  0  0
  149.7249  149.1243   94.0130 H   0  0  0  0  0  0  0  0  0  0  0  0
  150.5682  146.4533   94.5504 H   0  0  0  0  0  0  0  0  0  0  0  0
  149.9453  147.7093   95.6853 H   0  0  0  0  0  0  0  0  0  0  0  0
  148.6484  145.6689   95.7757 H   0  0  0  0  0  0  0  0  0  0  0  0
  146.4923  146.7662   95.3071 H   0  0  0  0  0  0  0  0  0  0  0  0
  147.6250  147.8443   96.1737 H   0  0  0  0  0  0  0  0  0  0  0  0
  146.3561  148.3084   93.5857 H   0  0  0  0  0  0  0  0  0  0  0  0
  147.5463  149.3638   94.4185 H   0  0  0  0  0  0  0  0  0  0  0  0
  144.6572  144.0577   95.9272 H   0  0  0  0  0  0  0  0  0  0  0  0
  142.2417  143.3732   96.7346 H   0  0  0  0  0  0  0  0  0  0  0  0
  140.3822  141.7133   96.6260 H   0  0  0  0  0  0  0  0  0  0  0  0
  140.6039  139.6756   95.1870 H   0  0  0  0  0  0  0  0  0  0  0  0
  1  2  2  0
  2  3  1  0
  3  4  1  0
  4  5  1  0
  5  6  1  0
  6  7  1  0
  7  8  1  0
  8  9  1  0
  9 10  1  0
 10 11  1  0
  2 12  1  0
 12 13  2  0
 13 14  1  0
 14 15  2  0
 15 16  1  0
 16 17  2  0
 17 18  1  0
 18 19  1  0
 18 20  2  0
 20 21  1  0
  9  4  1  0
 21 12  1  0
 11  6  1  0
 20 14  1  0
  3 22  1  0
  4 23  1  6
  5 24  1  0
  5 25  1  0
  7 26  1  0
  7 27  1  0
  8 28  1  0
  8 29  1  0
  9 30  1  0
 10 31  1  0
 10 32  1  0
 11 33  1  0
 11 34  1  0
 13 35  1  0
 15 36  1  0
 16 37  1  0
 17 38  1  0
M  END
>  <meeko>  (12)
{"is_sidechain": false}

>  <source_group>  (12)
CHRFAM7A at B face

>  <source_system>  (12)
CHRNA7_encenicline

>  <source_run>  (12)
hybrid_B_face_seed20260825_ex32

>  <source_seed>  (12)
20260825

>  <vina_pose_rank>  (12)
12

>  <vina_affinity_kcal_mol>  (12)
-5.1909999999999998

>  <vina_rmsd_to_crystal_angstrom>  (12)
9.5541

$$$$
CHRNA7_encenicline__hybrid_B_face_seed20260825_ex32__pose13
     RDKit          3D

 38 41  0  0  0  0  0  0  0  0999 V2000
  145.5410  141.9780   93.5890 O   0  0  0  0  0  0  0  0  0  0  0  0
  145.3100  142.6810   94.5140 C   0  0  0  0  0  0  0  0  0  0  0  0
  146.2640  143.7020   94.8990 N   0  0  0  0  0  0  0  0  0  0  0  0
  147.5210  143.8510   94.1320 C   0  0  1  0  0  0  0  0  0  0  0  0
  147.5590  145.2320   93.4480 C   0  0  0  0  0  0  0  0  0  0  0  0
  148.6760  145.9670   93.8540 N   0  0  0  0  0  0  0  0  0  0  0  0
  149.8340  145.2770   93.5660 C   0  0  0  0  0  0  0  0  0  0  0  0
  149.8680  143.9490   94.2610 C   0  0  0  0  0  0  0  0  0  0  0  0
  148.6690  143.7540   95.0290 C   0  0  0  0  0  0  0  0  0  0  0  0
  148.5740  144.8280   96.0140 C   0  0  0  0  0  0  0  0  0  0  0  0
  148.6090  146.2060   95.2480 C   0  0  0  0  0  0  0  0  0  0  0  0
  144.0000  142.5040   95.2900 C   0  0  0  0  0  0  0  0  0  0  0  0
  143.5890  143.2650   96.3310 C   0  0  0  0  0  0  0  0  0  0  0  0
  142.3310  142.9790   96.9600 C   0  0  0  0  0  0  0  0  0  0  0  0
  141.7740  143.6510   98.0160 C   0  0  0  0  0  0  0  0  0  0  0  0
  140.5370  143.2530   98.5230 C   0  0  0  0  0  0  0  0  0  0  0  0
  139.8610  142.1620   97.9500 C   0  0  0  0  0  0  0  0  0  0  0  0
  140.4230  141.4730   96.8710 C   0  0  0  0  0  0  0  0  0  0  0  0
  139.5600  140.0910   96.1470 Cl  0  0  0  0  0  0  0  0  0  0  0  0
  141.6420  141.8630   96.3700 C   0  0  0  0  0  0  0  0  0  0  0  0
  142.7510  141.3190   95.0370 S   0  0  0  0  0  0  0  0  0  0  0  0
  146.0780  144.2910   95.6650 H   0  0  0  0  0  0  0  0  0  0  0  0
  147.5631  143.0522   93.3769 H   0  0  0  0  0  0  0  0  0  0  0  0
  147.5991  145.0913   92.3578 H   0  0  0  0  0  0  0  0  0  0  0  0
  146.6539  145.7874   93.7347 H   0  0  0  0  0  0  0  0  0  0  0  0
  149.8924  145.1138   92.4797 H   0  0  0  0  0  0  0  0  0  0  0  0
  150.6885  145.8735   93.9182 H   0  0  0  0  0  0  0  0  0  0  0  0
  149.9516  143.1493   93.5104 H   0  0  0  0  0  0  0  0  0  0  0  0
  150.7338  143.9235   94.9390 H   0  0  0  0  0  0  0  0  0  0  0  0
  148.6868  142.7726   95.5254 H   0  0  0  0  0  0  0  0  0  0  0  0
  147.6314  144.7373   96.5737 H   0  0  0  0  0  0  0  0  0  0  0  0
  149.4124  144.7671   96.7235 H   0  0  0  0  0  0  0  0  0  0  0  0
  147.6981  146.7777   95.4791 H   0  0  0  0  0  0  0  0  0  0  0  0
  149.4916  146.7807   95.5653 H   0  0  0  0  0  0  0  0  0  0  0  0
  144.2136  144.0954   96.6919 H   0  0  0  0  0  0  0  0  0  0  0  0
  142.3027  144.5051   98.4644 H   0  0  0  0  0  0  0  0  0  0  0  0
  140.0906  143.7929   99.3711 H   0  0  0  0  0  0  0  0  0  0  0  0
  138.8861  141.8491   98.3520 H   0  0  0  0  0  0  0  0  0  0  0  0
  1  2  2  0
  2  3  1  0
  3  4  1  0
  4  5  1  0
  5  6  1  0
  6  7  1  0
  7  8  1  0
  8  9  1  0
  9 10  1  0
 10 11  1  0
  2 12  1  0
 12 13  2  0
 13 14  1  0
 14 15  2  0
 15 16  1  0
 16 17  2  0
 17 18  1  0
 18 19  1  0
 18 20  2  0
 20 21  1  0
  9  4  1  0
 21 12  1  0
 11  6  1  0
 20 14  1  0
  3 22  1  0
  4 23  1  6
  5 24  1  0
  5 25  1  0
  7 26  1  0
  7 27  1  0
  8 28  1  0
  8 29  1  0
  9 30  1  0
 10 31  1  0
 10 32  1  0
 11 33  1  0
 11 34  1  0
 13 35  1  0
 15 36  1  0
 16 37  1  0
 17 38  1  0
M  END
>  <meeko>  (13)
{"is_sidechain": false}

>  <source_group>  (13)
CHRFAM7A at B face

>  <source_system>  (13)
CHRNA7_encenicline

>  <source_run>  (13)
hybrid_B_face_seed20260825_ex32

>  <source_seed>  (13)
20260825

>  <vina_pose_rank>  (13)
13

>  <vina_affinity_kcal_mol>  (13)
-5.1689999999999996

>  <vina_rmsd_to_crystal_angstrom>  (13)
10.0738

$$$$
CHRNA7_encenicline__hybrid_B_face_seed20260825_ex32__pose14
     RDKit          3D

 38 41  0  0  0  0  0  0  0  0999 V2000
  139.8910  140.9970   87.7440 O   0  0  0  0  0  0  0  0  0  0  0  0
  140.7740  140.2110   87.8160 C   0  0  0  0  0  0  0  0  0  0  0  0
  141.0770  139.3620   86.6800 N   0  0  0  0  0  0  0  0  0  0  0  0
  140.2740  139.4880   85.4420 C   0  0  1  0  0  0  0  0  0  0  0  0
  141.2030  139.7380   84.2370 C   0  0  0  0  0  0  0  0  0  0  0  0
  141.0480  138.7470   83.2640 N   0  0  0  0  0  0  0  0  0  0  0  0
  139.7390  138.6950   82.8360 C   0  0  0  0  0  0  0  0  0  0  0  0
  138.8040  138.3930   83.9690 C   0  0  0  0  0  0  0  0  0  0  0  0
  139.5340  138.2540   85.1980 C   0  0  0  0  0  0  0  0  0  0  0  0
  140.4940  137.1640   85.0430 C   0  0  0  0  0  0  0  0  0  0  0  0
  141.4130  137.4890   83.8040 C   0  0  0  0  0  0  0  0  0  0  0  0
  141.5890  140.1020   89.1090 C   0  0  0  0  0  0  0  0  0  0  0  0
  142.8910  139.7450   89.1970 C   0  0  0  0  0  0  0  0  0  0  0  0
  143.5220  139.6890   90.4840 C   0  0  0  0  0  0  0  0  0  0  0  0
  144.8240  139.3500   90.7420 C   0  0  0  0  0  0  0  0  0  0  0  0
  145.2970  139.3390   92.0540 C   0  0  0  0  0  0  0  0  0  0  0  0
  144.4370  139.6770   93.1130 C   0  0  0  0  0  0  0  0  0  0  0  0
  143.1070  140.0250   92.8570 C   0  0  0  0  0  0  0  0  0  0  0  0
  142.0220  140.4550   94.2050 Cl  0  0  0  0  0  0  0  0  0  0  0  0
  142.6390  140.0360   91.5650 C   0  0  0  0  0  0  0  0  0  0  0  0
  141.0610  140.4020   90.7410 S   0  0  0  0  0  0  0  0  0  0  0  0
  141.8110  138.7080   86.7310 H   0  0  0  0  0  0  0  0  0  0  0  0
  139.5760  140.3292   85.5654 H   0  0  0  0  0  0  0  0  0  0  0  0
  140.9614  140.7157   83.7947 H   0  0  0  0  0  0  0  0  0  0  0  0
  142.2444  139.7184   84.5907 H   0  0  0  0  0  0  0  0  0  0  0  0
  139.4672  139.6663   82.3970 H   0  0  0  0  0  0  0  0  0  0  0  0
  139.6504  137.8910   82.0905 H   0  0  0  0  0  0  0  0  0  0  0  0
  138.0790  139.2142   84.0691 H   0  0  0  0  0  0  0  0  0  0  0  0
  138.2800  137.4494   83.7569 H   0  0  0  0  0  0  0  0  0  0  0  0
  138.8461  138.0483   86.0313 H   0  0  0  0  0  0  0  0  0  0  0  0
  141.1094  137.0780   85.9507 H   0  0  0  0  0  0  0  0  0  0  0  0
  139.9657  136.2122   84.8848 H   0  0  0  0  0  0  0  0  0  0  0  0
  142.4647  137.5187   84.1250 H   0  0  0  0  0  0  0  0  0  0  0  0
  141.2860  136.7097   83.0381 H   0  0  0  0  0  0  0  0  0  0  0  0
  143.4612  139.4996   88.2889 H   0  0  0  0  0  0  0  0  0  0  0  0
  145.4974  139.0861   89.9132 H   0  0  0  0  0  0  0  0  0  0  0  0
  146.3425  139.0660   92.2598 H   0  0  0  0  0  0  0  0  0  0  0  0
  144.8116  139.6678   94.1472 H   0  0  0  0  0  0  0  0  0  0  0  0
  1  2  2  0
  2  3  1  0
  3  4  1  0
  4  5  1  0
  5  6  1  0
  6  7  1  0
  7  8  1  0
  8  9  1  0
  9 10  1  0
 10 11  1  0
  2 12  1  0
 12 13  2  0
 13 14  1  0
 14 15  2  0
 15 16  1  0
 16 17  2  0
 17 18  1  0
 18 19  1  0
 18 20  2  0
 20 21  1  0
  9  4  1  0
 21 12  1  0
 11  6  1  0
 20 14  1  0
  3 22  1  0
  4 23  1  1
  5 24  1  0
  5 25  1  0
  7 26  1  0
  7 27  1  0
  8 28  1  0
  8 29  1  0
  9 30  1  0
 10 31  1  0
 10 32  1  0
 11 33  1  0
 11 34  1  0
 13 35  1  0
 15 36  1  0
 16 37  1  0
 17 38  1  0
M  END
>  <meeko>  (14)
{"is_sidechain": false}

>  <source_group>  (14)
CHRFAM7A at B face

>  <source_system>  (14)
CHRNA7_encenicline

>  <source_run>  (14)
hybrid_B_face_seed20260825_ex32

>  <source_seed>  (14)
20260825

>  <vina_pose_rank>  (14)
14

>  <vina_affinity_kcal_mol>  (14)
-5.1520000000000001

>  <vina_rmsd_to_crystal_angstrom>  (14)
5.1295000000000002

$$$$
CHRNA7_encenicline__hybrid_B_face_seed20260825_ex32__pose15
     RDKit          3D

 38 41  0  0  0  0  0  0  0  0999 V2000
  151.8390  136.3720   87.6230 O   0  0  0  0  0  0  0  0  0  0  0  0
  151.0200  136.3600   88.4790 C   0  0  0  0  0  0  0  0  0  0  0  0
  149.6900  135.8550   88.1960 N   0  0  0  0  0  0  0  0  0  0  0  0
  149.3710  135.3650   86.8360 C   0  0  1  0  0  0  0  0  0  0  0  0
  148.2530  134.3050   86.9090 C   0  0  0  0  0  0  0  0  0  0  0  0
  147.1450  134.6860   86.1470 N   0  0  0  0  0  0  0  0  0  0  0  0
  147.5110  134.8820   84.8330 C   0  0  0  0  0  0  0  0  0  0  0  0
  148.5570  135.9500   84.7090 C   0  0  0  0  0  0  0  0  0  0  0  0
  148.9000  136.4680   86.0040 C   0  0  0  0  0  0  0  0  0  0  0  0
  147.6940  137.0210   86.6140 C   0  0  0  0  0  0  0  0  0  0  0  0
  146.6010  135.8870   86.6650 C   0  0  0  0  0  0  0  0  0  0  0  0
  151.3780  136.8740   89.8780 C   0  0  0  0  0  0  0  0  0  0  0  0
  150.9120  138.0090   90.4470 C   0  0  0  0  0  0  0  0  0  0  0  0
  151.3370  138.3610   91.7720 C   0  0  0  0  0  0  0  0  0  0  0  0
  150.9580  139.4670   92.4850 C   0  0  0  0  0  0  0  0  0  0  0  0
  151.4610  139.6760   93.7700 C   0  0  0  0  0  0  0  0  0  0  0  0
  152.3560  138.7510   94.3330 C   0  0  0  0  0  0  0  0  0  0  0  0
  152.7460  137.6180   93.6100 C   0  0  0  0  0  0  0  0  0  0  0  0
  153.8800  136.4470   94.3310 Cl  0  0  0  0  0  0  0  0  0  0  0  0
  152.2530  137.4110   92.3450 C   0  0  0  0  0  0  0  0  0  0  0  0
  152.4420  136.1490   91.0490 S   0  0  0  0  0  0  0  0  0  0  0  0
  149.0050  135.8390   88.9030 H   0  0  0  0  0  0  0  0  0  0  0  0
  150.2823  134.9276   86.4022 H   0  0  0  0  0  0  0  0  0  0  0  0
  148.6397  133.3487   86.5268 H   0  0  0  0  0  0  0  0  0  0  0  0
  147.9366  134.2040   87.9577 H   0  0  0  0  0  0  0  0  0  0  0  0
  147.9113  133.9405   84.4289 H   0  0  0  0  0  0  0  0  0  0  0  0
  146.6216  135.2019   84.2702 H   0  0  0  0  0  0  0  0  0  0  0  0
  149.4559  135.5241   84.2393 H   0  0  0  0  0  0  0  0  0  0  0  0
  148.1594  136.7687   84.0912 H   0  0  0  0  0  0  0  0  0  0  0  0
  149.6775  137.2409   85.9138 H   0  0  0  0  0  0  0  0  0  0  0  0
  147.9182  137.3676   87.6336 H   0  0  0  0  0  0  0  0  0  0  0  0
  147.3278  137.8742   86.0241 H   0  0  0  0  0  0  0  0  0  0  0  0
  146.2856  135.7278   87.7067 H   0  0  0  0  0  0  0  0  0  0  0  0
  145.7316  136.1870   86.0616 H   0  0  0  0  0  0  0  0  0  0  0  0
  150.2127  138.6573   89.8986 H   0  0  0  0  0  0  0  0  0  0  0  0
  150.2567  140.1911   92.0447 H   0  0  0  0  0  0  0  0  0  0  0  0
  151.1567  140.5650   94.3419 H   0  0  0  0  0  0  0  0  0  0  0  0
  152.7517  138.9179   95.3457 H   0  0  0  0  0  0  0  0  0  0  0  0
  1  2  2  0
  2  3  1  0
  3  4  1  0
  4  5  1  0
  5  6  1  0
  6  7  1  0
  7  8  1  0
  8  9  1  0
  9 10  1  0
 10 11  1  0
  2 12  1  0
 12 13  2  0
 13 14  1  0
 14 15  2  0
 15 16  1  0
 16 17  2  0
 17 18  1  0
 18 19  1  0
 18 20  2  0
 20 21  1  0
  9  4  1  0
 21 12  1  0
 11  6  1  0
 20 14  1  0
  3 22  1  0
  4 23  1  6
  5 24  1  0
  5 25  1  0
  7 26  1  0
  7 27  1  0
  8 28  1  0
  8 29  1  0
  9 30  1  0
 10 31  1  0
 10 32  1  0
 11 33  1  0
 11 34  1  0
 13 35  1  0
 15 36  1  0
 16 37  1  0
 17 38  1  0
M  END
>  <meeko>  (15)
{"is_sidechain": false}

>  <source_group>  (15)
CHRFAM7A at B face

>  <source_system>  (15)
CHRNA7_encenicline

>  <source_run>  (15)
hybrid_B_face_seed20260825_ex32

>  <source_seed>  (15)
20260825

>  <vina_pose_rank>  (15)
15

>  <vina_affinity_kcal_mol>  (15)
-5.1020000000000003

>  <vina_rmsd_to_crystal_angstrom>  (15)
8.8903999999999996

$$$$
CHRNA7_encenicline__hybrid_B_face_seed20260825_ex32__pose16
     RDKit          3D

 38 41  0  0  0  0  0  0  0  0999 V2000
  145.8220  145.1770   96.3050 O   0  0  0  0  0  0  0  0  0  0  0  0
  146.0080  144.2520   95.5880 C   0  0  0  0  0  0  0  0  0  0  0  0
  147.2640  144.1360   94.8730 N   0  0  0  0  0  0  0  0  0  0  0  0
  148.3000  145.1790   95.0460 C   0  0  1  0  0  0  0  0  0  0  0  0
  149.7030  144.5420   94.9850 C   0  0  0  0  0  0  0  0  0  0  0  0
  150.4690  145.1030   93.9600 N   0  0  0  0  0  0  0  0  0  0  0  0
  150.5880  146.4640   94.1410 C   0  0  0  0  0  0  0  0  0  0  0  0
  149.2460  147.1350   94.1470 C   0  0  0  0  0  0  0  0  0  0  0  0
  148.2000  146.1660   93.9750 C   0  0  0  0  0  0  0  0  0  0  0  0
  148.4090  145.4830   92.7010 C   0  0  0  0  0  0  0  0  0  0  0  0
  149.8530  144.8500   92.7100 C   0  0  0  0  0  0  0  0  0  0  0  0
  144.9180  143.1870   95.4280 C   0  0  0  0  0  0  0  0  0  0  0  0
  143.7380  143.1550   96.0910 C   0  0  0  0  0  0  0  0  0  0  0  0
  142.8120  142.0900   95.8320 C   0  0  0  0  0  0  0  0  0  0  0  0
  141.5840  141.9160   96.4140 C   0  0  0  0  0  0  0  0  0  0  0  0
  140.7920  140.8240   96.0600 C   0  0  0  0  0  0  0  0  0  0  0  0
  141.2530  139.9010   95.1060 C   0  0  0  0  0  0  0  0  0  0  0  0
  142.5050  140.0740   94.5070 C   0  0  0  0  0  0  0  0  0  0  0  0
  143.0850  138.9010   93.2950 Cl  0  0  0  0  0  0  0  0  0  0  0  0
  143.2880  141.1490   94.8550 C   0  0  0  0  0  0  0  0  0  0  0  0
  144.9220  141.7930   94.3860 S   0  0  0  0  0  0  0  0  0  0  0  0
  147.4270  143.3690   94.2780 H   0  0  0  0  0  0  0  0  0  0  0  0
  148.1450  145.6630   96.0215 H   0  0  0  0  0  0  0  0  0  0  0  0
  150.2136  144.7062   95.9454 H   0  0  0  0  0  0  0  0  0  0  0  0
  149.5885  143.4664   94.7852 H   0  0  0  0  0  0  0  0  0  0  0  0
  151.0878  146.6549   95.1021 H   0  0  0  0  0  0  0  0  0  0  0  0
  151.1763  146.8740   93.3068 H   0  0  0  0  0  0  0  0  0  0  0  0
  149.1048  147.6541   95.1065 H   0  0  0  0  0  0  0  0  0  0  0  0
  149.2042  147.8557   93.3171 H   0  0  0  0  0  0  0  0  0  0  0  0
  147.2159  146.6571   93.9948 H   0  0  0  0  0  0  0  0  0  0  0  0
  147.6563  144.6907   92.5758 H   0  0  0  0  0  0  0  0  0  0  0  0
  148.3126  146.1956   91.8686 H   0  0  0  0  0  0  0  0  0  0  0  0
  149.7789  143.7642   92.5503 H   0  0  0  0  0  0  0  0  0  0  0  0
  150.4556  145.2973   91.9058 H   0  0  0  0  0  0  0  0  0  0  0  0
  143.4912  143.9389   96.8221 H   0  0  0  0  0  0  0  0  0  0  0  0
  141.2225  142.6380   97.1610 H   0  0  0  0  0  0  0  0  0  0  0  0
  139.8061  140.6852   96.5277 H   0  0  0  0  0  0  0  0  0  0  0  0
  140.6272  139.0397   94.8294 H   0  0  0  0  0  0  0  0  0  0  0  0
  1  2  2  0
  2  3  1  0
  3  4  1  0
  4  5  1  0
  5  6  1  0
  6  7  1  0
  7  8  1  0
  8  9  1  0
  9 10  1  0
 10 11  1  0
  2 12  1  0
 12 13  2  0
 13 14  1  0
 14 15  2  0
 15 16  1  0
 16 17  2  0
 17 18  1  0
 18 19  1  0
 18 20  2  0
 20 21  1  0
  9  4  1  0
 21 12  1  0
 11  6  1  0
 20 14  1  0
  3 22  1  0
  4 23  1  1
  5 24  1  0
  5 25  1  0
  7 26  1  0
  7 27  1  0
  8 28  1  0
  8 29  1  0
  9 30  1  0
 10 31  1  0
 10 32  1  0
 11 33  1  0
 11 34  1  0
 13 35  1  0
 15 36  1  0
 16 37  1  0
 17 38  1  0
M  END
>  <meeko>  (16)
{"is_sidechain": false}

>  <source_group>  (16)
CHRFAM7A at B face

>  <source_system>  (16)
CHRNA7_encenicline

>  <source_run>  (16)
hybrid_B_face_seed20260825_ex32

>  <source_seed>  (16)
20260825

>  <vina_pose_rank>  (16)
16

>  <vina_affinity_kcal_mol>  (16)
-5.093

>  <vina_rmsd_to_crystal_angstrom>  (16)
9.6633999999999993

$$$$
CHRNA7_encenicline__hybrid_B_face_seed20260825_ex32__pose17
     RDKit          3D

 38 41  0  0  0  0  0  0  0  0999 V2000
  146.1250  142.6140   93.6910 O   0  0  0  0  0  0  0  0  0  0  0  0
  145.6740  143.1710   94.6330 C   0  0  0  0  0  0  0  0  0  0  0  0
  146.3940  144.2820   95.2250 N   0  0  0  0  0  0  0  0  0  0  0  0
  147.6890  144.7030   94.6430 C   0  0  1  0  0  0  0  0  0  0  0  0
  147.6460  146.2050   94.2980 C   0  0  0  0  0  0  0  0  0  0  0  0
  148.6480  146.9090   94.9700 N   0  0  0  0  0  0  0  0  0  0  0  0
  149.8880  146.3970   94.6530 C   0  0  0  0  0  0  0  0  0  0  0  0
  149.9960  144.9490   95.0290 C   0  0  0  0  0  0  0  0  0  0  0  0
  148.7640  144.4880   95.6070 C   0  0  0  0  0  0  0  0  0  0  0  0
  148.4840  145.2910   96.7950 C   0  0  0  0  0  0  0  0  0  0  0  0
  148.4450  146.8070   96.3690 C   0  0  0  0  0  0  0  0  0  0  0  0
  144.3320  142.7140   95.2150 C   0  0  0  0  0  0  0  0  0  0  0  0
  143.5860  141.6790   94.7650 C   0  0  0  0  0  0  0  0  0  0  0  0
  142.3460  141.3670   95.4160 C   0  0  0  0  0  0  0  0  0  0  0  0
  141.4810  140.3570   95.0860 C   0  0  0  0  0  0  0  0  0  0  0  0
  140.3050  140.1780   95.8160 C   0  0  0  0  0  0  0  0  0  0  0  0
  140.0080  141.0340   96.8900 C   0  0  0  0  0  0  0  0  0  0  0  0
  140.8870  142.0660   97.2330 C   0  0  0  0  0  0  0  0  0  0  0  0
  140.5050  143.1470   98.5980 Cl  0  0  0  0  0  0  0  0  0  0  0  0
  142.0450  142.2440   96.5150 C   0  0  0  0  0  0  0  0  0  0  0  0
  143.4570  143.3900   96.5590 S   0  0  0  0  0  0  0  0  0  0  0  0
  146.0260  144.7520   96.0070 H   0  0  0  0  0  0  0  0  0  0  0  0
  147.8707  144.1091   93.7351 H   0  0  0  0  0  0  0  0  0  0  0  0
  147.7871  146.3279   93.2140 H   0  0  0  0  0  0  0  0  0  0  0  0
  146.6705  146.6054   94.6113 H   0  0  0  0  0  0  0  0  0  0  0  0
  150.0505  146.4983   93.5698 H   0  0  0  0  0  0  0  0  0  0  0  0
  150.6480  146.9581   95.2166 H   0  0  0  0  0  0  0  0  0  0  0  0
  150.2182  144.3566   94.1292 H   0  0  0  0  0  0  0  0  0  0  0  0
  150.8025  144.8316   95.7678 H   0  0  0  0  0  0  0  0  0  0  0  0
  148.8379  143.4221   95.8683 H   0  0  0  0  0  0  0  0  0  0  0  0
  147.5127  144.9991   97.2208 H   0  0  0  0  0  0  0  0  0  0  0  0
  149.2641  145.1303   97.5537 H   0  0  0  0  0  0  0  0  0  0  0  0
  147.4665  147.2364   96.6300 H   0  0  0  0  0  0  0  0  0  0  0  0
  149.2385  147.3570   96.8961 H   0  0  0  0  0  0  0  0  0  0  0  0
  143.9273  141.0814   93.9069 H   0  0  0  0  0  0  0  0  0  0  0  0
  141.7135  139.6868   94.2453 H   0  0  0  0  0  0  0  0  0  0  0  0
  139.6108  139.3670   95.5506 H   0  0  0  0  0  0  0  0  0  0  0  0
  139.0801  140.8917   97.4634 H   0  0  0  0  0  0  0  0  0  0  0  0
  1  2  2  0
  2  3  1  0
  3  4  1  0
  4  5  1  0
  5  6  1  0
  6  7  1  0
  7  8  1  0
  8  9  1  0
  9 10  1  0
 10 11  1  0
  2 12  1  0
 12 13  2  0
 13 14  1  0
 14 15  2  0
 15 16  1  0
 16 17  2  0
 17 18  1  0
 18 19  1  0
 18 20  2  0
 20 21  1  0
  9  4  1  0
 21 12  1  0
 11  6  1  0
 20 14  1  0
  3 22  1  0
  4 23  1  6
  5 24  1  0
  5 25  1  0
  7 26  1  0
  7 27  1  0
  8 28  1  0
  8 29  1  0
  9 30  1  0
 10 31  1  0
 10 32  1  0
 11 33  1  0
 11 34  1  0
 13 35  1  0
 15 36  1  0
 16 37  1  0
 17 38  1  0
M  END
>  <meeko>  (17)
{"is_sidechain": false}

>  <source_group>  (17)
CHRFAM7A at B face

>  <source_system>  (17)
CHRNA7_encenicline

>  <source_run>  (17)
hybrid_B_face_seed20260825_ex32

>  <source_seed>  (17)
20260825

>  <vina_pose_rank>  (17)
17

>  <vina_affinity_kcal_mol>  (17)
-5.0700000000000003

>  <vina_rmsd_to_crystal_angstrom>  (17)
10.0915

$$$$
CHRNA7_encenicline__hybrid_B_face_seed20260825_ex32__pose18
     RDKit          3D

 38 41  0  0  0  0  0  0  0  0999 V2000
  148.0110  138.4540   89.5150 O   0  0  0  0  0  0  0  0  0  0  0  0
  147.7650  138.2720   90.6590 C   0  0  0  0  0  0  0  0  0  0  0  0
  148.7430  137.6250   91.5120 N   0  0  0  0  0  0  0  0  0  0  0  0
  150.0400  137.1970   90.9380 C   0  0  1  0  0  0  0  0  0  0  0  0
  151.0810  138.3230   91.0950 C   0  0  0  0  0  0  0  0  0  0  0  0
  152.1890  137.8900   91.8270 N   0  0  0  0  0  0  0  0  0  0  0  0
  152.7740  136.8030   91.2140 C   0  0  0  0  0  0  0  0  0  0  0  0
  151.8110  135.6580   91.0950 C   0  0  0  0  0  0  0  0  0  0  0  0
  150.5340  136.0180   91.6440 C   0  0  0  0  0  0  0  0  0  0  0  0
  150.7190  136.3680   93.0500 C   0  0  0  0  0  0  0  0  0  0  0  0
  151.7840  137.5270   93.1350 C   0  0  0  0  0  0  0  0  0  0  0  0
  146.4150  138.7250   91.2260 C   0  0  0  0  0  0  0  0  0  0  0  0
  146.1310  138.9180   92.5350 C   0  0  0  0  0  0  0  0  0  0  0  0
  144.8160  139.3480   92.9160 C   0  0  0  0  0  0  0  0  0  0  0  0
  144.3720  139.5890   94.1890 C   0  0  0  0  0  0  0  0  0  0  0  0
  143.0570  140.0040   94.4030 C   0  0  0  0  0  0  0  0  0  0  0  0
  142.1870  140.1740   93.3120 C   0  0  0  0  0  0  0  0  0  0  0  0
  142.6350  139.9300   92.0100 C   0  0  0  0  0  0  0  0  0  0  0  0
  141.5270  140.1490   90.6300 Cl  0  0  0  0  0  0  0  0  0  0  0  0
  143.9290  139.5220   91.7970 C   0  0  0  0  0  0  0  0  0  0  0  0
  144.9530  139.0930   90.3570 S   0  0  0  0  0  0  0  0  0  0  0  0
  148.5480  137.4720   92.4640 H   0  0  0  0  0  0  0  0  0  0  0  0
  149.8888  136.9650   89.8734 H   0  0  0  0  0  0  0  0  0  0  0  0
  151.4140  138.6450   90.0973 H   0  0  0  0  0  0  0  0  0  0  0  0
  150.6114  139.1576   91.6362 H   0  0  0  0  0  0  0  0  0  0  0  0
  153.1076  137.0962   90.2077 H   0  0  0  0  0  0  0  0  0  0  0  0
  153.6263  136.4764   91.8279 H   0  0  0  0  0  0  0  0  0  0  0  0
  151.6884  135.3965   90.0336 H   0  0  0  0  0  0  0  0  0  0  0  0
  152.2092  134.7978   91.6530 H   0  0  0  0  0  0  0  0  0  0  0  0
  149.8241  135.1839   91.5426 H   0  0  0  0  0  0  0  0  0  0  0  0
  149.7642  136.7080   93.4775 H   0  0  0  0  0  0  0  0  0  0  0  0
  151.0665  135.4914   93.6164 H   0  0  0  0  0  0  0  0  0  0  0  0
  151.3386  138.3988   93.6366 H   0  0  0  0  0  0  0  0  0  0  0  0
  152.6575  137.1824   93.7080 H   0  0  0  0  0  0  0  0  0  0  0  0
  146.9019  138.7466   93.3007 H   0  0  0  0  0  0  0  0  0  0  0  0
  145.0522  139.4554   95.0431 H   0  0  0  0  0  0  0  0  0  0  0  0
  142.7011  140.1981   95.4256 H   0  0  0  0  0  0  0  0  0  0  0  0
  141.1504  140.5000   93.4830 H   0  0  0  0  0  0  0  0  0  0  0  0
  1  2  2  0
  2  3  1  0
  3  4  1  0
  4  5  1  0
  5  6  1  0
  6  7  1  0
  7  8  1  0
  8  9  1  0
  9 10  1  0
 10 11  1  0
  2 12  1  0
 12 13  2  0
 13 14  1  0
 14 15  2  0
 15 16  1  0
 16 17  2  0
 17 18  1  0
 18 19  1  0
 18 20  2  0
 20 21  1  0
  9  4  1  0
 21 12  1  0
 11  6  1  0
 20 14  1  0
  3 22  1  0
  4 23  1  6
  5 24  1  0
  5 25  1  0
  7 26  1  0
  7 27  1  0
  8 28  1  0
  8 29  1  0
  9 30  1  0
 10 31  1  0
 10 32  1  0
 11 33  1  0
 11 34  1  0
 13 35  1  0
 15 36  1  0
 16 37  1  0
 17 38  1  0
M  END
>  <meeko>  (18)
{"is_sidechain": false}

>  <source_group>  (18)
CHRFAM7A at B face

>  <source_system>  (18)
CHRNA7_encenicline

>  <source_run>  (18)
hybrid_B_face_seed20260825_ex32

>  <source_seed>  (18)
20260825

>  <vina_pose_rank>  (18)
18

>  <vina_affinity_kcal_mol>  (18)
-5.0410000000000004

>  <vina_rmsd_to_crystal_angstrom>  (18)
9.0478000000000005

$$$$
CHRNA7_encenicline__hybrid_B_face_seed20260825_ex32__pose19
     RDKit          3D

 38 41  0  0  0  0  0  0  0  0999 V2000
  148.3010  137.6150   92.2440 O   0  0  0  0  0  0  0  0  0  0  0  0
  148.0860  138.1530   91.2110 C   0  0  0  0  0  0  0  0  0  0  0  0
  146.7520  138.6410   90.9180 N   0  0  0  0  0  0  0  0  0  0  0  0
  145.6740  138.4580   91.9150 C   0  0  1  0  0  0  0  0  0  0  0  0
  145.4330  139.7750   92.6780 C   0  0  0  0  0  0  0  0  0  0  0  0
  144.1130  140.2090   92.5360 N   0  0  0  0  0  0  0  0  0  0  0  0
  143.2400  139.2460   92.9920 C   0  0  0  0  0  0  0  0  0  0  0  0
  143.3970  137.9610   92.2340 C   0  0  0  0  0  0  0  0  0  0  0  0
  144.4310  138.0860   91.2450 C   0  0  0  0  0  0  0  0  0  0  0  0
  144.0640  139.1620   90.3280 C   0  0  0  0  0  0  0  0  0  0  0  0
  143.8430  140.4750   91.1710 C   0  0  0  0  0  0  0  0  0  0  0  0
  149.2210  138.3300   90.1970 C   0  0  0  0  0  0  0  0  0  0  0  0
  150.4610  138.8000   90.4710 C   0  0  0  0  0  0  0  0  0  0  0  0
  151.4240  138.9080   89.4120 C   0  0  0  0  0  0  0  0  0  0  0  0
  152.7120  139.3590   89.5230 C   0  0  0  0  0  0  0  0  0  0  0  0
  153.5350  139.4090   88.3970 C   0  0  0  0  0  0  0  0  0  0  0  0
  153.0410  138.9950   87.1480 C   0  0  0  0  0  0  0  0  0  0  0  0
  151.7270  138.5320   87.0280 C   0  0  0  0  0  0  0  0  0  0  0  0
  151.1070  138.0060   85.4420 Cl  0  0  0  0  0  0  0  0  0  0  0  0
  150.9150  138.4830   88.1360 C   0  0  0  0  0  0  0  0  0  0  0  0
  149.2040  137.9820   88.4920 S   0  0  0  0  0  0  0  0  0  0  0  0
  146.5660  139.0920   90.0630 H   0  0  0  0  0  0  0  0  0  0  0  0
  145.9798  137.6652   92.6135 H   0  0  0  0  0  0  0  0  0  0  0  0
  145.6447  139.6147   93.7455 H   0  0  0  0  0  0  0  0  0  0  0  0
  146.0987  140.5450   92.2608 H   0  0  0  0  0  0  0  0  0  0  0  0
  143.4382  139.0592   94.0578 H   0  0  0  0  0  0  0  0  0  0  0  0
  142.2132  139.6118   92.8438 H   0  0  0  0  0  0  0  0  0  0  0  0
  143.6620  137.1564   92.9357 H   0  0  0  0  0  0  0  0  0  0  0  0
  142.4479  137.7258   91.7301 H   0  0  0  0  0  0  0  0  0  0  0  0
  144.5567  137.1384   90.7006 H   0  0  0  0  0  0  0  0  0  0  0  0
  144.8712  139.3201   89.5977 H   0  0  0  0  0  0  0  0  0  0  0  0
  143.1439  138.9004   89.7848 H   0  0  0  0  0  0  0  0  0  0  0  0
  144.5213  141.2618   90.8093 H   0  0  0  0  0  0  0  0  0  0  0  0
  142.8014  140.8110   91.0613 H   0  0  0  0  0  0  0  0  0  0  0  0
  150.7280  139.0964   91.4961 H   0  0  0  0  0  0  0  0  0  0  0  0
  153.0985  139.6823   90.5008 H   0  0  0  0  0  0  0  0  0  0  0  0
  154.5694  139.7721   88.4869 H   0  0  0  0  0  0  0  0  0  0  0  0
  153.6907  139.0354   86.2613 H   0  0  0  0  0  0  0  0  0  0  0  0
  1  2  2  0
  2  3  1  0
  3  4  1  0
  4  5  1  0
  5  6  1  0
  6  7  1  0
  7  8  1  0
  8  9  1  0
  9 10  1  0
 10 11  1  0
  2 12  1  0
 12 13  2  0
 13 14  1  0
 14 15  2  0
 15 16  1  0
 16 17  2  0
 17 18  1  0
 18 19  1  0
 18 20  2  0
 20 21  1  0
  9  4  1  0
 21 12  1  0
 11  6  1  0
 20 14  1  0
  3 22  1  0
  4 23  1  1
  5 24  1  0
  5 25  1  0
  7 26  1  0
  7 27  1  0
  8 28  1  0
  8 29  1  0
  9 30  1  0
 10 31  1  0
 10 32  1  0
 11 33  1  0
 11 34  1  0
 13 35  1  0
 15 36  1  0
 16 37  1  0
 17 38  1  0
M  END
>  <meeko>  (19)
{"is_sidechain": false}

>  <source_group>  (19)
CHRFAM7A at B face

>  <source_system>  (19)
CHRNA7_encenicline

>  <source_run>  (19)
hybrid_B_face_seed20260825_ex32

>  <source_seed>  (19)
20260825

>  <vina_pose_rank>  (19)
19

>  <vina_affinity_kcal_mol>  (19)
-4.9969999999999999

>  <vina_rmsd_to_crystal_angstrom>  (19)
6.8574000000000002

$$$$
CHRNA7_encenicline__hybrid_B_face_seed20260825_ex32__pose20
     RDKit          3D

 38 41  0  0  0  0  0  0  0  0999 V2000
  150.0480  134.9660   89.8450 O   0  0  0  0  0  0  0  0  0  0  0  0
  150.1150  136.1390   89.6960 C   0  0  0  0  0  0  0  0  0  0  0  0
  149.6620  136.7340   88.4530 N   0  0  0  0  0  0  0  0  0  0  0  0
  149.1240  135.8640   87.3830 C   0  0  1  0  0  0  0  0  0  0  0  0
  147.7840  136.4290   86.8700 C   0  0  0  0  0  0  0  0  0  0  0  0
  147.8400  136.6970   85.5000 N   0  0  0  0  0  0  0  0  0  0  0  0
  148.1560  135.5540   84.8000 C   0  0  0  0  0  0  0  0  0  0  0  0
  149.4850  135.0010   85.2250 C   0  0  0  0  0  0  0  0  0  0  0  0
  150.0570  135.8140   86.2610 C   0  0  0  0  0  0  0  0  0  0  0  0
  150.2250  137.1700   85.7430 C   0  0  0  0  0  0  0  0  0  0  0  0
  148.8210  137.6870   85.2480 C   0  0  0  0  0  0  0  0  0  0  0  0
  150.6760  137.0160   90.8200 C   0  0  0  0  0  0  0  0  0  0  0  0
  151.2780  136.5690   91.9470 C   0  0  0  0  0  0  0  0  0  0  0  0
  151.7570  137.5150   92.9140 C   0  0  0  0  0  0  0  0  0  0  0  0
  152.3860  137.2270   94.0970 C   0  0  0  0  0  0  0  0  0  0  0  0
  152.7960  138.2610   94.9390 C   0  0  0  0  0  0  0  0  0  0  0  0
  152.5640  139.5980   94.5750 C   0  0  0  0  0  0  0  0  0  0  0  0
  151.9240  139.8990   93.3680 C   0  0  0  0  0  0  0  0  0  0  0  0
  151.6340  141.5980   92.9100 Cl  0  0  0  0  0  0  0  0  0  0  0  0
  151.5190  138.8830   92.5370 C   0  0  0  0  0  0  0  0  0  0  0  0
  150.6810  138.7530   90.9280 S   0  0  0  0  0  0  0  0  0  0  0  0
  149.7120  137.7080   88.3220 H   0  0  0  0  0  0  0  0  0  0  0  0
  148.9777  134.8557   87.7976 H   0  0  0  0  0  0  0  0  0  0  0  0
  146.9884  135.6934   87.0595 H   0  0  0  0  0  0  0  0  0  0  0  0
  147.5767  137.3699   87.4008 H   0  0  0  0  0  0  0  0  0  0  0  0
  147.3789  134.7969   84.9814 H   0  0  0  0  0  0  0  0  0  0  0  0
  148.2124  135.8073   83.7311 H   0  0  0  0  0  0  0  0  0  0  0  0
  149.3476  133.9769   85.6022 H   0  0  0  0  0  0  0  0  0  0  0  0
  150.1633  134.9970   84.3590 H   0  0  0  0  0  0  0  0  0  0  0  0
  151.0235  135.3991   86.5833 H   0  0  0  0  0  0  0  0  0  0  0  0
  150.6045  137.8280   86.5387 H   0  0  0  0  0  0  0  0  0  0  0  0
  150.9448  137.1719   84.9112 H   0  0  0  0  0  0  0  0  0  0  0  0
  148.5586  138.6093   85.7869 H   0  0  0  0  0  0  0  0  0  0  0  0
  148.8653  137.8943   84.1686 H   0  0  0  0  0  0  0  0  0  0  0  0
  151.3990  135.4895   92.1202 H   0  0  0  0  0  0  0  0  0  0  0  0
  152.5676  136.1804   94.3827 H   0  0  0  0  0  0  0  0  0  0  0  0
  153.3012  138.0294   95.8883 H   0  0  0  0  0  0  0  0  0  0  0  0
  152.8868  140.4113   95.2416 H   0  0  0  0  0  0  0  0  0  0  0  0
  1  2  2  0
  2  3  1  0
  3  4  1  0
  4  5  1  0
  5  6  1  0
  6  7  1  0
  7  8  1  0
  8  9  1  0
  9 10  1  0
 10 11  1  0
  2 12  1  0
 12 13  2  0
 13 14  1  0
 14 15  2  0
 15 16  1  0
 16 17  2  0
 17 18  1  0
 18 19  1  0
 18 20  2  0
 20 21  1  0
  9  4  1  0
 21 12  1  0
 11  6  1  0
 20 14  1  0
  3 22  1  0
  4 23  1  1
  5 24  1  0
  5 25  1  0
  7 26  1  0
  7 27  1  0
  8 28  1  0
  8 29  1  0
  9 30  1  0
 10 31  1  0
 10 32  1  0
 11 33  1  0
 11 34  1  0
 13 35  1  0
 15 36  1  0
 16 37  1  0
 17 38  1  0
M  END
>  <meeko>  (20)
{"is_sidechain": false}

>  <source_group>  (20)
CHRFAM7A at B face

>  <source_system>  (20)
CHRNA7_encenicline

>  <source_run>  (20)
hybrid_B_face_seed20260825_ex32

>  <source_seed>  (20)
20260825

>  <vina_pose_rank>  (20)
20

>  <vina_affinity_kcal_mol>  (20)
-4.8769999999999998

>  <vina_rmsd_to_crystal_angstrom>  (20)
9.1014999999999997

$$$$
