CHRNA7_encenicline__hybrid_B_face_seed20260825_ex32__pose01


 22 25  0  0  0  0  0  0  0  0999 V2000
  143.8780  141.2730   95.6080 O   0  0  0  0  0  0  0  0  0  0  0  0
  142.8540  140.9610   95.1030 C   0  0  0  0  0  0  0  0  0  0  0  0
  142.8570  140.3230   93.8010 N   0  0  0  0  0  0  0  0  0  0  0  0
  142.0100  140.0590   93.3760 H   0  0  0  0  0  0  0  0  0  0  0  0
  141.5350  141.2320   95.8350 C   0  0  0  0  0  0  0  0  0  0  0  0
  141.2720  142.2990   96.6250 C   0  0  0  0  0  0  0  0  0  0  0  0
  139.9840  142.4190   97.2450 C   0  0  0  0  0  0  0  0  0  0  0  0
  139.5620  143.4320   98.0650 C   0  0  0  0  0  0  0  0  0  0  0  0
  138.2730  143.4090   98.5970 C   0  0  0  0  0  0  0  0  0  0  0  0
  137.4050  142.3460   98.2920 C   0  0  0  0  0  0  0  0  0  0  0  0
  137.8290  141.3090   97.4550 C   0  0  0  0  0  0  0  0  0  0  0  0
  136.7240  139.9650   97.0700 Cl  0  0  0  0  0  0  0  0  0  0  0  0
  139.0990  141.3300   96.9300 C   0  0  0  0  0  0  0  0  0  0  0  0
  140.0870  140.2660   95.8360 S   0  0  0  0  0  0  0  0  0  0  0  0
  144.1450  140.0730   93.1160 C   0  0  0  0  0  0  0  0  0  0  0  0
  144.6130  138.6300   93.3870 C   0  0  0  0  0  0  0  0  0  0  0  0
  144.7750  137.9170   92.1960 N   0  0  0  0  0  0  0  0  0  0  0  0
  145.6850  138.5510   91.3780 C   0  0  0  0  0  0  0  0  0  0  0  0
  145.2390  139.9420   91.0380 C   0  0  0  0  0  0  0  0  0  0  0  0
  143.9850  140.2370   91.6740 C   0  0  0  0  0  0  0  0  0  0  0  0
  142.9940  139.2690   91.2090 C   0  0  0  0  0  0  0  0  0  0  0  0
  143.5310  137.8220   91.5260 C   0  0  0  0  0  0  0  0  0  0  0  0
  1  2  2  0
  2  3  1  0
  3 15  1  0
 15 16  1  0
 16 17  1  0
 17 18  1  0
 18 19  1  0
 19 20  1  0
 20 21  1  0
 21 22  1  0
  2  5  1  0
  5  6  2  0
  6  7  1  0
  7  8  2  0
  8  9  1  0
  9 10  2  0
 10 11  1  0
 11 12  1  0
 11 13  2  0
 13 14  1  0
 20 15  1  0
 14  5  1  0
 22 17  1  0
 13  7  1  0
  3  4  1  0
M  END
> <meeko>
{"is_sidechain": false}

> <source_group>
CHRFAM7A at B face

> <source_system>
CHRNA7_encenicline

> <source_run>
hybrid_B_face_seed20260825_ex32

> <source_seed>
20260825

> <vina_pose_rank>
1

> <vina_affinity_kcal_mol>
-6.242

> <vina_rmsd_to_crystal_angstrom>
8.6501999999999999

> <minimizedAffinity>
-6.24489

> <CNNscore>
0.1591698378

> <CNNaffinity>
4.6612105370

> <CNN_VS>
0.7419241071

> <CNNaffinity_variance>
1.0790215731

$$$$
CHRNA7_encenicline__hybrid_B_face_seed20260825_ex32__pose02


 22 25  0  0  0  0  0  0  0  0999 V2000
  146.4820  144.6200   93.6520 O   0  0  0  0  0  0  0  0  0  0  0  0
  146.6080  143.6110   94.2590 C   0  0  0  0  0  0  0  0  0  0  0  0
  147.8970  143.2690   94.8290 N   0  0  0  0  0  0  0  0  0  0  0  0
  148.0090  142.4340   95.3370 H   0  0  0  0  0  0  0  0  0  0  0  0
  145.4050  142.6790   94.4380 C   0  0  0  0  0  0  0  0  0  0  0  0
  144.3480  142.8990   95.2540 C   0  0  0  0  0  0  0  0  0  0  0  0
  143.2900  141.9310   95.3150 C   0  0  0  0  0  0  0  0  0  0  0  0
  142.1580  142.0050   96.0830 C   0  0  0  0  0  0  0  0  0  0  0  0
  141.2140  140.9790   96.0360 C   0  0  0  0  0  0  0  0  0  0  0  0
  141.4240  139.8680   95.2010 C   0  0  0  0  0  0  0  0  0  0  0  0
  142.5770  139.7870   94.4140 C   0  0  0  0  0  0  0  0  0  0  0  0
  142.8370  138.3770   93.3550 Cl  0  0  0  0  0  0  0  0  0  0  0  0
  143.5080  140.7960   94.4580 C   0  0  0  0  0  0  0  0  0  0  0  0
  145.1040  141.1500   93.6630 S   0  0  0  0  0  0  0  0  0  0  0  0
  149.0430  144.1880   94.6410 C   0  0  0  0  0  0  0  0  0  0  0  0
  149.4520  144.8020   95.9950 C   0  0  0  0  0  0  0  0  0  0  0  0
  150.7840  144.5120   96.3000 N   0  0  0  0  0  0  0  0  0  0  0  0
  151.6170  144.9840   95.3090 C   0  0  0  0  0  0  0  0  0  0  0  0
  151.2930  144.3650   93.9810 C   0  0  0  0  0  0  0  0  0  0  0  0
  150.1880  143.4570   94.1070 C   0  0  0  0  0  0  0  0  0  0  0  0
  150.5550  142.4160   95.0640 C   0  0  0  0  0  0  0  0  0  0  0  0
  150.9510  143.1100   96.4220 C   0  0  0  0  0  0  0  0  0  0  0  0
  1  2  2  0
  2  3  1  0
  3 15  1  0
 15 16  1  0
 16 17  1  0
 17 18  1  0
 18 19  1  0
 19 20  1  0
 20 21  1  0
 21 22  1  0
  2  5  1  0
  5  6  2  0
  6  7  1  0
  7  8  2  0
  8  9  1  0
  9 10  2  0
 10 11  1  0
 11 12  1  0
 11 13  2  0
 13 14  1  0
 20 15  1  0
 14  5  1  0
 22 17  1  0
 13  7  1  0
  3  4  1  0
M  END
> <meeko>
{"is_sidechain": false}

> <source_group>
CHRFAM7A at B face

> <source_system>
CHRNA7_encenicline

> <source_run>
hybrid_B_face_seed20260825_ex32

> <source_seed>
20260825

> <vina_pose_rank>
2

> <vina_affinity_kcal_mol>
-5.8319999999999999

> <vina_rmsd_to_crystal_angstrom>
9.9174000000000007

> <minimizedAffinity>
-5.81342

> <CNNscore>
0.0577584803

> <CNNaffinity>
3.6160488129

> <CNN_VS>
0.2088574767

> <CNNaffinity_variance>
1.2331438065

$$$$
CHRNA7_encenicline__hybrid_B_face_seed20260825_ex32__pose03


 22 25  0  0  0  0  0  0  0  0999 V2000
  146.7960  144.2210   93.5110 O   0  0  0  0  0  0  0  0  0  0  0  0
  146.2930  143.9430   94.5470 C   0  0  0  0  0  0  0  0  0  0  0  0
  146.6990  144.6370   95.7540 N   0  0  0  0  0  0  0  0  0  0  0  0
  146.2840  144.4140   96.6180 H   0  0  0  0  0  0  0  0  0  0  0  0
  145.2150  142.8550   94.5990 C   0  0  0  0  0  0  0  0  0  0  0  0
  144.1090  142.8730   95.3780 C   0  0  0  0  0  0  0  0  0  0  0  0
  143.1840  141.7780   95.3160 C   0  0  0  0  0  0  0  0  0  0  0  0
  142.0240  141.6460   96.0330 C   0  0  0  0  0  0  0  0  0  0  0  0
  141.2230  140.5150   95.8640 C   0  0  0  0  0  0  0  0  0  0  0  0
  141.6070  139.5120   94.9580 C   0  0  0  0  0  0  0  0  0  0  0  0
  142.7890  139.6410   94.2220 C   0  0  0  0  0  0  0  0  0  0  0  0
  143.2680  138.3650   93.0730 Cl  0  0  0  0  0  0  0  0  0  0  0  0
  143.5790  140.7530   94.3870 C   0  0  0  0  0  0  0  0  0  0  0  0
  145.1440  141.3680   93.6960 S   0  0  0  0  0  0  0  0  0  0  0  0
  147.7430  145.6840   95.6760 C   0  0  0  0  0  0  0  0  0  0  0  0
  147.0860  147.0790   95.6360 C   0  0  0  0  0  0  0  0  0  0  0  0
  147.5200  147.8730   96.7000 N   0  0  0  0  0  0  0  0  0  0  0  0
  148.8910  148.0080   96.6690 C   0  0  0  0  0  0  0  0  0  0  0  0
  149.5740  146.6760   96.7670 C   0  0  0  0  0  0  0  0  0  0  0  0
  148.6050  145.6200   96.8530 C   0  0  0  0  0  0  0  0  0  0  0  0
  147.7810  145.8450   98.0380 C   0  0  0  0  0  0  0  0  0  0  0  0
  147.1360  147.2780   97.9270 C   0  0  0  0  0  0  0  0  0  0  0  0
  1  2  2  0
  2  3  1  0
  3 15  1  0
 15 16  1  0
 16 17  1  0
 17 18  1  0
 18 19  1  0
 19 20  1  0
 20 21  1  0
 21 22  1  0
  2  5  1  0
  5  6  2  0
  6  7  1  0
  7  8  2  0
  8  9  1  0
  9 10  2  0
 10 11  1  0
 11 12  1  0
 11 13  2  0
 13 14  1  0
 20 15  1  0
 14  5  1  0
 22 17  1  0
 13  7  1  0
  3  4  1  0
M  END
> <meeko>
{"is_sidechain": false}

> <source_group>
CHRFAM7A at B face

> <source_system>
CHRNA7_encenicline

> <source_run>
hybrid_B_face_seed20260825_ex32

> <source_seed>
20260825

> <vina_pose_rank>
3

> <vina_affinity_kcal_mol>
-5.71

> <vina_rmsd_to_crystal_angstrom>
9.8394999999999992

> <minimizedAffinity>
-5.68555

> <CNNscore>
0.0735345855

> <CNNaffinity>
3.6308958530

> <CNN_VS>
0.2669964135

> <CNNaffinity_variance>
0.9547171593

$$$$
CHRNA7_encenicline__hybrid_B_face_seed20260825_ex32__pose04


 22 25  0  0  0  0  0  0  0  0999 V2000
  140.9800  141.2160   89.1110 O   0  0  0  0  0  0  0  0  0  0  0  0
  141.5220  140.2170   88.7770 C   0  0  0  0  0  0  0  0  0  0  0  0
  142.5890  139.6700   89.5920 N   0  0  0  0  0  0  0  0  0  0  0  0
  143.0430  138.8390   89.3230 H   0  0  0  0  0  0  0  0  0  0  0  0
  141.0850  139.5110   87.4880 C   0  0  0  0  0  0  0  0  0  0  0  0
  141.7970  139.4490   86.3400 C   0  0  0  0  0  0  0  0  0  0  0  0
  141.2560  138.7470   85.2110 C   0  0  0  0  0  0  0  0  0  0  0  0
  141.8480  138.5920   83.9850 C   0  0  0  0  0  0  0  0  0  0  0  0
  141.1940  137.8800   82.9790 C   0  0  0  0  0  0  0  0  0  0  0  0
  139.9270  137.3220   83.2230 C   0  0  0  0  0  0  0  0  0  0  0  0
  139.3180  137.4760   84.4730 C   0  0  0  0  0  0  0  0  0  0  0  0
  137.7120  136.7640   84.7770 Cl  0  0  0  0  0  0  0  0  0  0  0  0
  139.9600  138.1770   85.4650 C   0  0  0  0  0  0  0  0  0  0  0  0
  139.6080  138.6400   87.1870 S   0  0  0  0  0  0  0  0  0  0  0  0
  142.9910  140.3710   90.8320 C   0  0  0  0  0  0  0  0  0  0  0  0
  142.2340  139.7820   92.0380 C   0  0  0  0  0  0  0  0  0  0  0  0
  143.1200  139.2880   93.0000 N   0  0  0  0  0  0  0  0  0  0  0  0
  143.9660  140.2870   93.4300 C   0  0  0  0  0  0  0  0  0  0  0  0
  144.7700  140.8500   92.2950 C   0  0  0  0  0  0  0  0  0  0  0  0
  144.4230  140.1980   91.0630 C   0  0  0  0  0  0  0  0  0  0  0  0
  144.6960  138.7700   91.2050 C   0  0  0  0  0  0  0  0  0  0  0  0
  143.8850  138.2330   92.4460 C   0  0  0  0  0  0  0  0  0  0  0  0
  1  2  2  0
  2  3  1  0
  3 15  1  0
 15 16  1  0
 16 17  1  0
 17 18  1  0
 18 19  1  0
 19 20  1  0
 20 21  1  0
 21 22  1  0
  2  5  1  0
  5  6  2  0
  6  7  1  0
  7  8  2  0
  8  9  1  0
  9 10  2  0
 10 11  1  0
 11 12  1  0
 11 13  2  0
 13 14  1  0
 20 15  1  0
 14  5  1  0
 22 17  1  0
 13  7  1  0
  3  4  1  0
M  END
> <meeko>
{"is_sidechain": false}

> <source_group>
CHRFAM7A at B face

> <source_system>
CHRNA7_encenicline

> <source_run>
hybrid_B_face_seed20260825_ex32

> <source_seed>
20260825

> <vina_pose_rank>
4

> <vina_affinity_kcal_mol>
-5.6950000000000003

> <vina_rmsd_to_crystal_angstrom>
7.2893999999999997

> <minimizedAffinity>
-5.69084

> <CNNscore>
0.1452252418

> <CNNaffinity>
4.3443150520

> <CNN_VS>
0.6309041977

> <CNNaffinity_variance>
1.5510004759

$$$$
CHRNA7_encenicline__hybrid_B_face_seed20260825_ex32__pose05


 22 25  0  0  0  0  0  0  0  0999 V2000
  146.0730  144.8290   95.9910 O   0  0  0  0  0  0  0  0  0  0  0  0
  146.1890  144.2130   94.9860 C   0  0  0  0  0  0  0  0  0  0  0  0
  147.1760  144.6160   94.0040 N   0  0  0  0  0  0  0  0  0  0  0  0
  147.2800  144.1080   93.1670 H   0  0  0  0  0  0  0  0  0  0  0  0
  145.2930  142.9940   94.7370 C   0  0  0  0  0  0  0  0  0  0  0  0
  145.5800  141.9560   93.9180 C   0  0  0  0  0  0  0  0  0  0  0  0
  144.6400  140.8800   93.7880 C   0  0  0  0  0  0  0  0  0  0  0  0
  144.7790  139.7630   93.0070 C   0  0  0  0  0  0  0  0  0  0  0  0
  143.7730  138.7970   92.9820 C   0  0  0  0  0  0  0  0  0  0  0  0
  142.6150  138.9700   93.7600 C   0  0  0  0  0  0  0  0  0  0  0  0
  142.4660  140.1070   94.5600 C   0  0  0  0  0  0  0  0  0  0  0  0
  140.9960  140.3190   95.5460 Cl  0  0  0  0  0  0  0  0  0  0  0  0
  143.4560  141.0600   94.5850 C   0  0  0  0  0  0  0  0  0  0  0  0
  143.7320  142.6490   95.4240 S   0  0  0  0  0  0  0  0  0  0  0  0
  148.0280  145.7970   94.2700 C   0  0  0  0  0  0  0  0  0  0  0  0
  149.3740  145.3490   94.8740 C   0  0  0  0  0  0  0  0  0  0  0  0
  150.4480  145.7700   94.0850 N   0  0  0  0  0  0  0  0  0  0  0  0
  150.4360  147.1420   93.9510 C   0  0  0  0  0  0  0  0  0  0  0  0
  149.1660  147.6180   93.3100 C   0  0  0  0  0  0  0  0  0  0  0  0
  148.3020  146.5070   93.0240 C   0  0  0  0  0  0  0  0  0  0  0  0
  149.0040  145.5980   92.1210 C   0  0  0  0  0  0  0  0  0  0  0  0
  150.3600  145.1740   92.8030 C   0  0  0  0  0  0  0  0  0  0  0  0
  1  2  2  0
  2  3  1  0
  3 15  1  0
 15 16  1  0
 16 17  1  0
 17 18  1  0
 18 19  1  0
 19 20  1  0
 20 21  1  0
 21 22  1  0
  2  5  1  0
  5  6  2  0
  6  7  1  0
  7  8  2  0
  8  9  1  0
  9 10  2  0
 10 11  1  0
 11 12  1  0
 11 13  2  0
 13 14  1  0
 20 15  1  0
 14  5  1  0
 22 17  1  0
 13  7  1  0
  3  4  1  0
M  END
> <meeko>
{"is_sidechain": false}

> <source_group>
CHRFAM7A at B face

> <source_system>
CHRNA7_encenicline

> <source_run>
hybrid_B_face_seed20260825_ex32

> <source_seed>
20260825

> <vina_pose_rank>
5

> <vina_affinity_kcal_mol>
-5.6420000000000003

> <vina_rmsd_to_crystal_angstrom>
9.3529999999999998

> <minimizedAffinity>
-5.62595

> <CNNscore>
0.0694457442

> <CNNaffinity>
3.5396003723

> <CNN_VS>
0.2458101809

> <CNNaffinity_variance>
1.5979343653

$$$$
CHRNA7_encenicline__hybrid_B_face_seed20260825_ex32__pose06


 22 25  0  0  0  0  0  0  0  0999 V2000
  145.9650  145.2480   94.4440 O   0  0  0  0  0  0  0  0  0  0  0  0
  146.2900  144.1270   94.6420 C   0  0  0  0  0  0  0  0  0  0  0  0
  147.6940  143.8020   94.8000 N   0  0  0  0  0  0  0  0  0  0  0  0
  147.9730  142.8730   94.9680 H   0  0  0  0  0  0  0  0  0  0  0  0
  145.2210  143.0320   94.7330 C   0  0  0  0  0  0  0  0  0  0  0  0
  145.2180  141.8700   94.0410 C   0  0  0  0  0  0  0  0  0  0  0  0
  144.1460  140.9360   94.2340 C   0  0  0  0  0  0  0  0  0  0  0  0
  143.9970  139.7230   93.6160 C   0  0  0  0  0  0  0  0  0  0  0  0
  142.8930  138.9210   93.9070 C   0  0  0  0  0  0  0  0  0  0  0  0
  141.9330  139.3580   94.8350 C   0  0  0  0  0  0  0  0  0  0  0  0
  142.0790  140.5950   95.4700 C   0  0  0  0  0  0  0  0  0  0  0  0
  140.8580  141.1440   96.6480 Cl  0  0  0  0  0  0  0  0  0  0  0  0
  143.1650  141.3870   95.1850 C   0  0  0  0  0  0  0  0  0  0  0  0
  143.7870  143.0100   95.7190 S   0  0  0  0  0  0  0  0  0  0  0  0
  148.7060  144.8790   94.7080 C   0  0  0  0  0  0  0  0  0  0  0  0
  149.3950  145.0710   96.0740 C   0  0  0  0  0  0  0  0  0  0  0  0
  150.7760  144.8820   95.9750 N   0  0  0  0  0  0  0  0  0  0  0  0
  151.3160  145.7580   95.0590 C   0  0  0  0  0  0  0  0  0  0  0  0
  150.7160  145.5640   93.6970 C   0  0  0  0  0  0  0  0  0  0  0  0
  149.7280  144.5220   93.7280 C   0  0  0  0  0  0  0  0  0  0  0  0
  150.3750  143.2880   94.1670 C   0  0  0  0  0  0  0  0  0  0  0  0
  151.0470  143.5530   95.5680 C   0  0  0  0  0  0  0  0  0  0  0  0
  1  2  2  0
  2  3  1  0
  3 15  1  0
 15 16  1  0
 16 17  1  0
 17 18  1  0
 18 19  1  0
 19 20  1  0
 20 21  1  0
 21 22  1  0
  2  5  1  0
  5  6  2  0
  6  7  1  0
  7  8  2  0
  8  9  1  0
  9 10  2  0
 10 11  1  0
 11 12  1  0
 11 13  2  0
 13 14  1  0
 20 15  1  0
 14  5  1  0
 22 17  1  0
 13  7  1  0
  3  4  1  0
M  END
> <meeko>
{"is_sidechain": false}

> <source_group>
CHRFAM7A at B face

> <source_system>
CHRNA7_encenicline

> <source_run>
hybrid_B_face_seed20260825_ex32

> <source_seed>
20260825

> <vina_pose_rank>
6

> <vina_affinity_kcal_mol>
-5.5609999999999999

> <vina_rmsd_to_crystal_angstrom>
9.8656000000000006

> <minimizedAffinity>
-5.53171

> <CNNscore>
0.0659804344

> <CNNaffinity>
3.4531676769

> <CNN_VS>
0.2278414965

> <CNNaffinity_variance>
1.3258012533

$$$$
CHRNA7_encenicline__hybrid_B_face_seed20260825_ex32__pose07


 22 25  0  0  0  0  0  0  0  0999 V2000
  146.2720  138.7140   90.5190 O   0  0  0  0  0  0  0  0  0  0  0  0
  146.5310  138.7640   91.6740 C   0  0  0  0  0  0  0  0  0  0  0  0
  147.8100  138.2730   92.1480 N   0  0  0  0  0  0  0  0  0  0  0  0
  148.0340  138.3140   93.1050 H   0  0  0  0  0  0  0  0  0  0  0  0
  145.5100  139.3530   92.6550 C   0  0  0  0  0  0  0  0  0  0  0  0
  144.3290  138.7890   93.0010 C   0  0  0  0  0  0  0  0  0  0  0  0
  143.4750  139.4610   93.9380 C   0  0  0  0  0  0  0  0  0  0  0  0
  142.2570  139.0260   94.3900 C   0  0  0  0  0  0  0  0  0  0  0  0
  141.5370  139.7940   95.3060 C   0  0  0  0  0  0  0  0  0  0  0  0
  142.0620  141.0150   95.7650 C   0  0  0  0  0  0  0  0  0  0  0  0
  143.3050  141.4640   95.3070 C   0  0  0  0  0  0  0  0  0  0  0  0
  143.9660  143.0120   95.8940 Cl  0  0  0  0  0  0  0  0  0  0  0  0
  144.0150  140.7090   94.4050 C   0  0  0  0  0  0  0  0  0  0  0  0
  145.6090  140.8470   93.5420 S   0  0  0  0  0  0  0  0  0  0  0  0
  148.7780  137.7100   91.1790 C   0  0  0  0  0  0  0  0  0  0  0  0
  149.7100  138.8220   90.6610 C   0  0  0  0  0  0  0  0  0  0  0  0
  151.0490  138.5260   90.9290 N   0  0  0  0  0  0  0  0  0  0  0  0
  151.4000  137.3250   90.3520 C   0  0  0  0  0  0  0  0  0  0  0  0
  150.5550  136.2000   90.8750 C   0  0  0  0  0  0  0  0  0  0  0  0
  149.5990  136.6920   91.8270 C   0  0  0  0  0  0  0  0  0  0  0  0
  150.3260  137.3200   92.9280 C   0  0  0  0  0  0  0  0  0  0  0  0
  151.2490  138.4490   92.3290 C   0  0  0  0  0  0  0  0  0  0  0  0
  1  2  2  0
  2  3  1  0
  3 15  1  0
 15 16  1  0
 16 17  1  0
 17 18  1  0
 18 19  1  0
 19 20  1  0
 20 21  1  0
 21 22  1  0
  2  5  1  0
  5  6  2  0
  6  7  1  0
  7  8  2  0
  8  9  1  0
  9 10  2  0
 10 11  1  0
 11 12  1  0
 11 13  2  0
 13 14  1  0
 20 15  1  0
 14  5  1  0
 22 17  1  0
 13  7  1  0
  3  4  1  0
M  END
> <meeko>
{"is_sidechain": false}

> <source_group>
CHRFAM7A at B face

> <source_system>
CHRNA7_encenicline

> <source_run>
hybrid_B_face_seed20260825_ex32

> <source_seed>
20260825

> <vina_pose_rank>
7

> <vina_affinity_kcal_mol>
-5.5410000000000004

> <vina_rmsd_to_crystal_angstrom>
8.5960999999999999

> <minimizedAffinity>
-5.55526

> <CNNscore>
0.1592712700

> <CNNaffinity>
4.4098229408

> <CNN_VS>
0.7023581266

> <CNNaffinity_variance>
0.4208056927

$$$$
CHRNA7_encenicline__hybrid_B_face_seed20260825_ex32__pose08


 22 25  0  0  0  0  0  0  0  0999 V2000
  146.0120  145.3240   95.5730 O   0  0  0  0  0  0  0  0  0  0  0  0
  146.1920  144.5010   94.7400 C   0  0  0  0  0  0  0  0  0  0  0  0
  147.2610  144.6730   93.7760 N   0  0  0  0  0  0  0  0  0  0  0  0
  147.4180  143.9930   93.0830 H   0  0  0  0  0  0  0  0  0  0  0  0
  145.2940  143.2600   94.6950 C   0  0  0  0  0  0  0  0  0  0  0  0
  144.1350  143.0960   95.3750 C   0  0  0  0  0  0  0  0  0  0  0  0
  143.3990  141.8730   95.2300 C   0  0  0  0  0  0  0  0  0  0  0  0
  142.2160  141.5540   95.8420 C   0  0  0  0  0  0  0  0  0  0  0  0
  141.6160  140.3170   95.6020 C   0  0  0  0  0  0  0  0  0  0  0  0
  142.2260  139.3980   94.7310 C   0  0  0  0  0  0  0  0  0  0  0  0
  143.4330  139.7180   94.1020 C   0  0  0  0  0  0  0  0  0  0  0  0
  144.2010  138.5490   92.9960 Cl  0  0  0  0  0  0  0  0  0  0  0  0
  144.0250  140.9350   94.3370 C   0  0  0  0  0  0  0  0  0  0  0  0
  145.5310  141.7940   93.7870 S   0  0  0  0  0  0  0  0  0  0  0  0
  148.1140  145.8820   93.8420 C   0  0  0  0  0  0  0  0  0  0  0  0
  149.3390  145.6120   94.7380 C   0  0  0  0  0  0  0  0  0  0  0  0
  150.5320  145.8040   94.0360 N   0  0  0  0  0  0  0  0  0  0  0  0
  150.5950  147.0890   93.5420 C   0  0  0  0  0  0  0  0  0  0  0  0
  149.4520  147.3760   92.6140 C   0  0  0  0  0  0  0  0  0  0  0  0
  148.5930  146.2300   92.5080 C   0  0  0  0  0  0  0  0  0  0  0  0
  149.3790  145.1110   91.9950 C   0  0  0  0  0  0  0  0  0  0  0  0
  150.6040  144.8850   92.9600 C   0  0  0  0  0  0  0  0  0  0  0  0
  1  2  2  0
  2  3  1  0
  3 15  1  0
 15 16  1  0
 16 17  1  0
 17 18  1  0
 18 19  1  0
 19 20  1  0
 20 21  1  0
 21 22  1  0
  2  5  1  0
  5  6  2  0
  6  7  1  0
  7  8  2  0
  8  9  1  0
  9 10  2  0
 10 11  1  0
 11 12  1  0
 11 13  2  0
 13 14  1  0
 20 15  1  0
 14  5  1  0
 22 17  1  0
 13  7  1  0
  3  4  1  0
M  END
> <meeko>
{"is_sidechain": false}

> <source_group>
CHRFAM7A at B face

> <source_system>
CHRNA7_encenicline

> <source_run>
hybrid_B_face_seed20260825_ex32

> <source_seed>
20260825

> <vina_pose_rank>
8

> <vina_affinity_kcal_mol>
-5.4020000000000001

> <vina_rmsd_to_crystal_angstrom>
9.4292999999999996

> <minimizedAffinity>
-5.42043

> <CNNscore>
0.0717047676

> <CNNaffinity>
3.6192066669

> <CNN_VS>
0.2595143616

> <CNNaffinity_variance>
1.1725932360

$$$$
CHRNA7_encenicline__hybrid_B_face_seed20260825_ex32__pose09


 22 25  0  0  0  0  0  0  0  0999 V2000
  147.4760  138.5450   90.0840 O   0  0  0  0  0  0  0  0  0  0  0  0
  147.7240  138.2660   91.2080 C   0  0  0  0  0  0  0  0  0  0  0  0
  146.6730  138.2970   92.2070 N   0  0  0  0  0  0  0  0  0  0  0  0
  146.8700  138.0640   93.1420 H   0  0  0  0  0  0  0  0  0  0  0  0
  149.1540  137.8730   91.5940 C   0  0  0  0  0  0  0  0  0  0  0  0
  149.8500  136.8270   91.0920 C   0  0  0  0  0  0  0  0  0  0  0  0
  151.1880  136.5830   91.5510 C   0  0  0  0  0  0  0  0  0  0  0  0
  152.0200  135.5750   91.1440 C   0  0  0  0  0  0  0  0  0  0  0  0
  153.3020  135.4650   91.6850 C   0  0  0  0  0  0  0  0  0  0  0  0
  153.7380  136.3900   92.6490 C   0  0  0  0  0  0  0  0  0  0  0  0
  152.8940  137.4230   93.0680 C   0  0  0  0  0  0  0  0  0  0  0  0
  153.4540  138.5940   94.2900 Cl  0  0  0  0  0  0  0  0  0  0  0  0
  151.6310  137.5320   92.5370 C   0  0  0  0  0  0  0  0  0  0  0  0
  150.2110  138.6480   92.7400 S   0  0  0  0  0  0  0  0  0  0  0  0
  145.2990  138.6800   91.8070 C   0  0  0  0  0  0  0  0  0  0  0  0
  144.2710  137.9510   92.6930 C   0  0  0  0  0  0  0  0  0  0  0  0
  143.4510  138.8580   93.3690 N   0  0  0  0  0  0  0  0  0  0  0  0
  142.7930  139.6710   92.4720 C   0  0  0  0  0  0  0  0  0  0  0  0
  143.7590  140.4480   91.6270 C   0  0  0  0  0  0  0  0  0  0  0  0
  145.1120  140.1180   91.9790 C   0  0  0  0  0  0  0  0  0  0  0  0
  145.3130  140.4420   93.3890 C   0  0  0  0  0  0  0  0  0  0  0  0
  144.2380  139.6570   94.2340 C   0  0  0  0  0  0  0  0  0  0  0  0
  1  2  2  0
  2  3  1  0
  3 15  1  0
 15 16  1  0
 16 17  1  0
 17 18  1  0
 18 19  1  0
 19 20  1  0
 20 21  1  0
 21 22  1  0
  2  5  1  0
  5  6  2  0
  6  7  1  0
  7  8  2  0
  8  9  1  0
  9 10  2  0
 10 11  1  0
 11 12  1  0
 11 13  2  0
 13 14  1  0
 20 15  1  0
 14  5  1  0
 22 17  1  0
 13  7  1  0
  3  4  1  0
M  END
> <meeko>
{"is_sidechain": false}

> <source_group>
CHRFAM7A at B face

> <source_system>
CHRNA7_encenicline

> <source_run>
hybrid_B_face_seed20260825_ex32

> <source_seed>
20260825

> <vina_pose_rank>
9

> <vina_affinity_kcal_mol>
-5.3860000000000001

> <vina_rmsd_to_crystal_angstrom>
6.3140000000000001

> <minimizedAffinity>
-5.39634

> <CNNscore>
0.0612680167

> <CNNaffinity>
3.8921349049

> <CNN_VS>
0.2384633869

> <CNNaffinity_variance>
1.1033333540

$$$$
CHRNA7_encenicline__hybrid_B_face_seed20260825_ex32__pose10


 22 25  0  0  0  0  0  0  0  0999 V2000
  148.4840  137.6310   92.2830 O   0  0  0  0  0  0  0  0  0  0  0  0
  147.9460  138.1180   91.3480 C   0  0  0  0  0  0  0  0  0  0  0  0
  148.6560  138.2420   90.0900 N   0  0  0  0  0  0  0  0  0  0  0  0
  148.2150  138.6430   89.3080 H   0  0  0  0  0  0  0  0  0  0  0  0
  146.5000  138.6110   91.4780 C   0  0  0  0  0  0  0  0  0  0  0  0
  145.6980  138.9880   90.4560 C   0  0  0  0  0  0  0  0  0  0  0  0
  144.3600  139.4270   90.7340 C   0  0  0  0  0  0  0  0  0  0  0  0
  143.4270  139.8370   89.8180 C   0  0  0  0  0  0  0  0  0  0  0  0
  142.1610  140.2390   90.2430 C   0  0  0  0  0  0  0  0  0  0  0  0
  141.8410  140.2240   91.6110 C   0  0  0  0  0  0  0  0  0  0  0  0
  142.7880  139.8050   92.5510 C   0  0  0  0  0  0  0  0  0  0  0  0
  142.3750  139.7850   94.2860 Cl  0  0  0  0  0  0  0  0  0  0  0  0
  144.0360  139.4090   92.1350 C   0  0  0  0  0  0  0  0  0  0  0  0
  145.5560  138.8040   92.9280 S   0  0  0  0  0  0  0  0  0  0  0  0
  150.0520  137.7570   89.9920 C   0  0  0  0  0  0  0  0  0  0  0  0
  150.0780  136.3570   89.3480 C   0  0  0  0  0  0  0  0  0  0  0  0
  150.8550  136.3480   88.1870 N   0  0  0  0  0  0  0  0  0  0  0  0
  152.1430  136.7510   88.4680 C   0  0  0  0  0  0  0  0  0  0  0  0
  152.1700  138.1370   89.0430 C   0  0  0  0  0  0  0  0  0  0  0  0
  150.8370  138.6590   89.1540 C   0  0  0  0  0  0  0  0  0  0  0  0
  150.2390  138.6850   87.8220 C   0  0  0  0  0  0  0  0  0  0  0  0
  150.2900  137.2260   87.2290 C   0  0  0  0  0  0  0  0  0  0  0  0
  1  2  2  0
  2  3  1  0
  3 15  1  0
 15 16  1  0
 16 17  1  0
 17 18  1  0
 18 19  1  0
 19 20  1  0
 20 21  1  0
 21 22  1  0
  2  5  1  0
  5  6  2  0
  6  7  1  0
  7  8  2  0
  8  9  1  0
  9 10  2  0
 10 11  1  0
 11 12  1  0
 11 13  2  0
 13 14  1  0
 20 15  1  0
 14  5  1  0
 22 17  1  0
 13  7  1  0
  3  4  1  0
M  END
> <meeko>
{"is_sidechain": false}

> <source_group>
CHRFAM7A at B face

> <source_system>
CHRNA7_encenicline

> <source_run>
hybrid_B_face_seed20260825_ex32

> <source_seed>
20260825

> <vina_pose_rank>
10

> <vina_affinity_kcal_mol>
-5.3129999999999997

> <vina_rmsd_to_crystal_angstrom>
8.5632999999999999

> <minimizedAffinity>
-5.29261

> <CNNscore>
0.2530228794

> <CNNaffinity>
5.0420756340

> <CNN_VS>
1.2757605314

> <CNNaffinity_variance>
0.2743170559

$$$$
CHRNA7_encenicline__hybrid_B_face_seed20260825_ex32__pose11


 22 25  0  0  0  0  0  0  0  0999 V2000
  151.5820  136.3440   87.3790 O   0  0  0  0  0  0  0  0  0  0  0  0
  150.8190  136.2350   88.2790 C   0  0  0  0  0  0  0  0  0  0  0  0
  149.5130  135.6500   88.0480 N   0  0  0  0  0  0  0  0  0  0  0  0
  148.8740  135.5530   88.7910 H   0  0  0  0  0  0  0  0  0  0  0  0
  151.2240  136.7110   89.6780 C   0  0  0  0  0  0  0  0  0  0  0  0
  152.2200  136.1920   90.4330 C   0  0  0  0  0  0  0  0  0  0  0  0
  152.4850  136.7470   91.7300 C   0  0  0  0  0  0  0  0  0  0  0  0
  153.4520  136.3400   92.6110 C   0  0  0  0  0  0  0  0  0  0  0  0
  153.5880  136.9800   93.8430 C   0  0  0  0  0  0  0  0  0  0  0  0
  152.7330  138.0430   94.1810 C   0  0  0  0  0  0  0  0  0  0  0  0
  151.7450  138.4640   93.2860 C   0  0  0  0  0  0  0  0  0  0  0  0
  150.6640  139.8140   93.7190 Cl  0  0  0  0  0  0  0  0  0  0  0  0
  151.6080  137.8350   92.0720 C   0  0  0  0  0  0  0  0  0  0  0  0
  150.5270  137.9990   90.6190 S   0  0  0  0  0  0  0  0  0  0  0  0
  149.1470  135.1980   86.6860 C   0  0  0  0  0  0  0  0  0  0  0  0
  148.0680  134.1000   86.7690 C   0  0  0  0  0  0  0  0  0  0  0  0
  146.9150  134.4710   86.0730 N   0  0  0  0  0  0  0  0  0  0  0  0
  147.2130  134.7260   84.7520 C   0  0  0  0  0  0  0  0  0  0  0  0
  148.2180  135.8320   84.6210 C   0  0  0  0  0  0  0  0  0  0  0  0
  148.6040  136.3140   85.9180 C   0  0  0  0  0  0  0  0  0  0  0  0
  147.4100  136.8050   86.6020 C   0  0  0  0  0  0  0  0  0  0  0  0
  146.3570  135.6330   86.6590 C   0  0  0  0  0  0  0  0  0  0  0  0
  1  2  2  0
  2  3  1  0
  3 15  1  0
 15 16  1  0
 16 17  1  0
 17 18  1  0
 18 19  1  0
 19 20  1  0
 20 21  1  0
 21 22  1  0
  2  5  1  0
  5  6  2  0
  6  7  1  0
  7  8  2  0
  8  9  1  0
  9 10  2  0
 10 11  1  0
 11 12  1  0
 11 13  2  0
 13 14  1  0
 20 15  1  0
 14  5  1  0
 22 17  1  0
 13  7  1  0
  3  4  1  0
M  END
> <meeko>
{"is_sidechain": false}

> <source_group>
CHRFAM7A at B face

> <source_system>
CHRNA7_encenicline

> <source_run>
hybrid_B_face_seed20260825_ex32

> <source_seed>
20260825

> <vina_pose_rank>
11

> <vina_affinity_kcal_mol>
-5.29

> <vina_rmsd_to_crystal_angstrom>
8.8389000000000006

> <minimizedAffinity>
-5.33095

> <CNNscore>
0.1040122360

> <CNNaffinity>
4.2257990837

> <CNN_VS>
0.4395348132

> <CNNaffinity_variance>
1.1289668083

$$$$
CHRNA7_encenicline__hybrid_B_face_seed20260825_ex32__pose12


 22 25  0  0  0  0  0  0  0  0999 V2000
  148.0150  143.1180   94.7520 O   0  0  0  0  0  0  0  0  0  0  0  0
  146.9860  143.5940   94.4080 C   0  0  0  0  0  0  0  0  0  0  0  0
  146.9630  144.9290   93.8420 N   0  0  0  0  0  0  0  0  0  0  0  0
  146.1130  145.3300   93.5510 H   0  0  0  0  0  0  0  0  0  0  0  0
  145.6900  142.7900   94.5620 C   0  0  0  0  0  0  0  0  0  0  0  0
  144.6340  143.1310   95.3350 C   0  0  0  0  0  0  0  0  0  0  0  0
  143.4830  142.2750   95.3770 C   0  0  0  0  0  0  0  0  0  0  0  0
  142.3400  142.4780   96.1030 C   0  0  0  0  0  0  0  0  0  0  0  0
  141.3000  141.5500   96.0420 C   0  0  0  0  0  0  0  0  0  0  0  0
  141.4250  140.4060   95.2340 C   0  0  0  0  0  0  0  0  0  0  0  0
  142.5900  140.1940   94.4900 C   0  0  0  0  0  0  0  0  0  0  0  0
  142.7420  138.7420   93.4660 Cl  0  0  0  0  0  0  0  0  0  0  0  0
  143.6150  141.1070   94.5490 C   0  0  0  0  0  0  0  0  0  0  0  0
  145.2640  141.2820   93.8030 S   0  0  0  0  0  0  0  0  0  0  0  0
  148.2300  145.6830   93.7050 C   0  0  0  0  0  0  0  0  0  0  0  0
  148.0990  146.7300   92.5810 C   0  0  0  0  0  0  0  0  0  0  0  0
  148.3310  148.0210   93.0620 N   0  0  0  0  0  0  0  0  0  0  0  0
  149.5860  148.1040   93.6260 C   0  0  0  0  0  0  0  0  0  0  0  0
  149.7380  147.1420   94.7660 C   0  0  0  0  0  0  0  0  0  0  0  0
  148.5310  146.3850   94.9490 C   0  0  0  0  0  0  0  0  0  0  0  0
  147.4410  147.3170   95.2260 C   0  0  0  0  0  0  0  0  0  0  0  0
  147.3580  148.3490   94.0380 C   0  0  0  0  0  0  0  0  0  0  0  0
  1  2  2  0
  2  3  1  0
  3 15  1  0
 15 16  1  0
 16 17  1  0
 17 18  1  0
 18 19  1  0
 19 20  1  0
 20 21  1  0
 21 22  1  0
  2  5  1  0
  5  6  2  0
  6  7  1  0
  7  8  2  0
  8  9  1  0
  9 10  2  0
 10 11  1  0
 11 12  1  0
 11 13  2  0
 13 14  1  0
 20 15  1  0
 14  5  1  0
 22 17  1  0
 13  7  1  0
  3  4  1  0
M  END
> <meeko>
{"is_sidechain": false}

> <source_group>
CHRFAM7A at B face

> <source_system>
CHRNA7_encenicline

> <source_run>
hybrid_B_face_seed20260825_ex32

> <source_seed>
20260825

> <vina_pose_rank>
12

> <vina_affinity_kcal_mol>
-5.1909999999999998

> <vina_rmsd_to_crystal_angstrom>
9.5541

> <minimizedAffinity>
-5.20288

> <CNNscore>
0.0521077625

> <CNNaffinity>
3.3296215534

> <CNN_VS>
0.1734991223

> <CNNaffinity_variance>
1.4247063398

$$$$
CHRNA7_encenicline__hybrid_B_face_seed20260825_ex32__pose13


 22 25  0  0  0  0  0  0  0  0999 V2000
  145.5410  141.9780   93.5890 O   0  0  0  0  0  0  0  0  0  0  0  0
  145.3100  142.6810   94.5140 C   0  0  0  0  0  0  0  0  0  0  0  0
  146.2640  143.7020   94.8990 N   0  0  0  0  0  0  0  0  0  0  0  0
  146.0780  144.2910   95.6650 H   0  0  0  0  0  0  0  0  0  0  0  0
  144.0000  142.5040   95.2900 C   0  0  0  0  0  0  0  0  0  0  0  0
  143.5890  143.2650   96.3310 C   0  0  0  0  0  0  0  0  0  0  0  0
  142.3310  142.9790   96.9600 C   0  0  0  0  0  0  0  0  0  0  0  0
  141.7740  143.6510   98.0160 C   0  0  0  0  0  0  0  0  0  0  0  0
  140.5370  143.2530   98.5230 C   0  0  0  0  0  0  0  0  0  0  0  0
  139.8610  142.1620   97.9500 C   0  0  0  0  0  0  0  0  0  0  0  0
  140.4230  141.4730   96.8710 C   0  0  0  0  0  0  0  0  0  0  0  0
  139.5600  140.0910   96.1470 Cl  0  0  0  0  0  0  0  0  0  0  0  0
  141.6420  141.8630   96.3700 C   0  0  0  0  0  0  0  0  0  0  0  0
  142.7510  141.3190   95.0370 S   0  0  0  0  0  0  0  0  0  0  0  0
  147.5210  143.8510   94.1320 C   0  0  0  0  0  0  0  0  0  0  0  0
  147.5590  145.2320   93.4480 C   0  0  0  0  0  0  0  0  0  0  0  0
  148.6760  145.9670   93.8540 N   0  0  0  0  0  0  0  0  0  0  0  0
  149.8340  145.2770   93.5660 C   0  0  0  0  0  0  0  0  0  0  0  0
  149.8680  143.9490   94.2610 C   0  0  0  0  0  0  0  0  0  0  0  0
  148.6690  143.7540   95.0290 C   0  0  0  0  0  0  0  0  0  0  0  0
  148.5740  144.8280   96.0140 C   0  0  0  0  0  0  0  0  0  0  0  0
  148.6090  146.2060   95.2480 C   0  0  0  0  0  0  0  0  0  0  0  0
  1  2  2  0
  2  3  1  0
  3 15  1  0
 15 16  1  0
 16 17  1  0
 17 18  1  0
 18 19  1  0
 19 20  1  0
 20 21  1  0
 21 22  1  0
  2  5  1  0
  5  6  2  0
  6  7  1  0
  7  8  2  0
  8  9  1  0
  9 10  2  0
 10 11  1  0
 11 12  1  0
 11 13  2  0
 13 14  1  0
 20 15  1  0
 14  5  1  0
 22 17  1  0
 13  7  1  0
  3  4  1  0
M  END
> <meeko>
{"is_sidechain": false}

> <source_group>
CHRFAM7A at B face

> <source_system>
CHRNA7_encenicline

> <source_run>
hybrid_B_face_seed20260825_ex32

> <source_seed>
20260825

> <vina_pose_rank>
13

> <vina_affinity_kcal_mol>
-5.1689999999999996

> <vina_rmsd_to_crystal_angstrom>
10.0738

> <minimizedAffinity>
-5.13531

> <CNNscore>
0.1160831451

> <CNNaffinity>
3.7105338573

> <CNN_VS>
0.4307304323

> <CNNaffinity_variance>
0.9326953888

$$$$
CHRNA7_encenicline__hybrid_B_face_seed20260825_ex32__pose14


 22 25  0  0  0  0  0  0  0  0999 V2000
  139.8910  140.9970   87.7440 O   0  0  0  0  0  0  0  0  0  0  0  0
  140.7740  140.2110   87.8160 C   0  0  0  0  0  0  0  0  0  0  0  0
  141.0770  139.3620   86.6800 N   0  0  0  0  0  0  0  0  0  0  0  0
  141.8110  138.7080   86.7310 H   0  0  0  0  0  0  0  0  0  0  0  0
  141.5890  140.1020   89.1090 C   0  0  0  0  0  0  0  0  0  0  0  0
  142.8910  139.7450   89.1970 C   0  0  0  0  0  0  0  0  0  0  0  0
  143.5220  139.6890   90.4840 C   0  0  0  0  0  0  0  0  0  0  0  0
  144.8240  139.3500   90.7420 C   0  0  0  0  0  0  0  0  0  0  0  0
  145.2970  139.3390   92.0540 C   0  0  0  0  0  0  0  0  0  0  0  0
  144.4370  139.6770   93.1130 C   0  0  0  0  0  0  0  0  0  0  0  0
  143.1070  140.0250   92.8570 C   0  0  0  0  0  0  0  0  0  0  0  0
  142.0220  140.4550   94.2050 Cl  0  0  0  0  0  0  0  0  0  0  0  0
  142.6390  140.0360   91.5650 C   0  0  0  0  0  0  0  0  0  0  0  0
  141.0610  140.4020   90.7410 S   0  0  0  0  0  0  0  0  0  0  0  0
  140.2740  139.4880   85.4420 C   0  0  0  0  0  0  0  0  0  0  0  0
  141.2030  139.7380   84.2370 C   0  0  0  0  0  0  0  0  0  0  0  0
  141.0480  138.7470   83.2640 N   0  0  0  0  0  0  0  0  0  0  0  0
  139.7390  138.6950   82.8360 C   0  0  0  0  0  0  0  0  0  0  0  0
  138.8040  138.3930   83.9690 C   0  0  0  0  0  0  0  0  0  0  0  0
  139.5340  138.2540   85.1980 C   0  0  0  0  0  0  0  0  0  0  0  0
  140.4940  137.1640   85.0430 C   0  0  0  0  0  0  0  0  0  0  0  0
  141.4130  137.4890   83.8040 C   0  0  0  0  0  0  0  0  0  0  0  0
  1  2  2  0
  2  3  1  0
  3 15  1  0
 15 16  1  0
 16 17  1  0
 17 18  1  0
 18 19  1  0
 19 20  1  0
 20 21  1  0
 21 22  1  0
  2  5  1  0
  5  6  2  0
  6  7  1  0
  7  8  2  0
  8  9  1  0
  9 10  2  0
 10 11  1  0
 11 12  1  0
 11 13  2  0
 13 14  1  0
 20 15  1  0
 14  5  1  0
 22 17  1  0
 13  7  1  0
  3  4  1  0
M  END
> <meeko>
{"is_sidechain": false}

> <source_group>
CHRFAM7A at B face

> <source_system>
CHRNA7_encenicline

> <source_run>
hybrid_B_face_seed20260825_ex32

> <source_seed>
20260825

> <vina_pose_rank>
14

> <vina_affinity_kcal_mol>
-5.1520000000000001

> <vina_rmsd_to_crystal_angstrom>
5.1295000000000002

> <minimizedAffinity>
-5.12224

> <CNNscore>
0.1208018884

> <CNNaffinity>
4.8511676788

> <CNN_VS>
0.5860302448

> <CNNaffinity_variance>
1.1409119368

$$$$
CHRNA7_encenicline__hybrid_B_face_seed20260825_ex32__pose15


 22 25  0  0  0  0  0  0  0  0999 V2000
  151.8390  136.3720   87.6230 O   0  0  0  0  0  0  0  0  0  0  0  0
  151.0200  136.3600   88.4790 C   0  0  0  0  0  0  0  0  0  0  0  0
  149.6900  135.8550   88.1960 N   0  0  0  0  0  0  0  0  0  0  0  0
  149.0050  135.8390   88.9030 H   0  0  0  0  0  0  0  0  0  0  0  0
  151.3780  136.8740   89.8780 C   0  0  0  0  0  0  0  0  0  0  0  0
  150.9120  138.0090   90.4470 C   0  0  0  0  0  0  0  0  0  0  0  0
  151.3370  138.3610   91.7720 C   0  0  0  0  0  0  0  0  0  0  0  0
  150.9580  139.4670   92.4850 C   0  0  0  0  0  0  0  0  0  0  0  0
  151.4610  139.6760   93.7700 C   0  0  0  0  0  0  0  0  0  0  0  0
  152.3560  138.7510   94.3330 C   0  0  0  0  0  0  0  0  0  0  0  0
  152.7460  137.6180   93.6100 C   0  0  0  0  0  0  0  0  0  0  0  0
  153.8800  136.4470   94.3310 Cl  0  0  0  0  0  0  0  0  0  0  0  0
  152.2530  137.4110   92.3450 C   0  0  0  0  0  0  0  0  0  0  0  0
  152.4420  136.1490   91.0490 S   0  0  0  0  0  0  0  0  0  0  0  0
  149.3710  135.3650   86.8360 C   0  0  0  0  0  0  0  0  0  0  0  0
  148.2530  134.3050   86.9090 C   0  0  0  0  0  0  0  0  0  0  0  0
  147.1450  134.6860   86.1470 N   0  0  0  0  0  0  0  0  0  0  0  0
  147.5110  134.8820   84.8330 C   0  0  0  0  0  0  0  0  0  0  0  0
  148.5570  135.9500   84.7090 C   0  0  0  0  0  0  0  0  0  0  0  0
  148.9000  136.4680   86.0040 C   0  0  0  0  0  0  0  0  0  0  0  0
  147.6940  137.0210   86.6140 C   0  0  0  0  0  0  0  0  0  0  0  0
  146.6010  135.8870   86.6650 C   0  0  0  0  0  0  0  0  0  0  0  0
  1  2  2  0
  2  3  1  0
  3 15  1  0
 15 16  1  0
 16 17  1  0
 17 18  1  0
 18 19  1  0
 19 20  1  0
 20 21  1  0
 21 22  1  0
  2  5  1  0
  5  6  2  0
  6  7  1  0
  7  8  2  0
  8  9  1  0
  9 10  2  0
 10 11  1  0
 11 12  1  0
 11 13  2  0
 13 14  1  0
 20 15  1  0
 14  5  1  0
 22 17  1  0
 13  7  1  0
  3  4  1  0
M  END
> <meeko>
{"is_sidechain": false}

> <source_group>
CHRFAM7A at B face

> <source_system>
CHRNA7_encenicline

> <source_run>
hybrid_B_face_seed20260825_ex32

> <source_seed>
20260825

> <vina_pose_rank>
15

> <vina_affinity_kcal_mol>
-5.1020000000000003

> <vina_rmsd_to_crystal_angstrom>
8.8903999999999996

> <minimizedAffinity>
-5.10935

> <CNNscore>
0.0964582562

> <CNNaffinity>
4.0023989677

> <CNN_VS>
0.3860644400

> <CNNaffinity_variance>
0.8859680295

$$$$
CHRNA7_encenicline__hybrid_B_face_seed20260825_ex32__pose16


 22 25  0  0  0  0  0  0  0  0999 V2000
  145.8220  145.1770   96.3050 O   0  0  0  0  0  0  0  0  0  0  0  0
  146.0080  144.2520   95.5880 C   0  0  0  0  0  0  0  0  0  0  0  0
  147.2640  144.1360   94.8730 N   0  0  0  0  0  0  0  0  0  0  0  0
  147.4270  143.3690   94.2780 H   0  0  0  0  0  0  0  0  0  0  0  0
  144.9180  143.1870   95.4280 C   0  0  0  0  0  0  0  0  0  0  0  0
  143.7380  143.1550   96.0910 C   0  0  0  0  0  0  0  0  0  0  0  0
  142.8120  142.0900   95.8320 C   0  0  0  0  0  0  0  0  0  0  0  0
  141.5840  141.9160   96.4140 C   0  0  0  0  0  0  0  0  0  0  0  0
  140.7920  140.8240   96.0600 C   0  0  0  0  0  0  0  0  0  0  0  0
  141.2530  139.9010   95.1060 C   0  0  0  0  0  0  0  0  0  0  0  0
  142.5050  140.0740   94.5070 C   0  0  0  0  0  0  0  0  0  0  0  0
  143.0850  138.9010   93.2950 Cl  0  0  0  0  0  0  0  0  0  0  0  0
  143.2880  141.1490   94.8550 C   0  0  0  0  0  0  0  0  0  0  0  0
  144.9220  141.7930   94.3860 S   0  0  0  0  0  0  0  0  0  0  0  0
  148.3000  145.1790   95.0460 C   0  0  0  0  0  0  0  0  0  0  0  0
  149.7030  144.5420   94.9850 C   0  0  0  0  0  0  0  0  0  0  0  0
  150.4690  145.1030   93.9600 N   0  0  0  0  0  0  0  0  0  0  0  0
  150.5880  146.4640   94.1410 C   0  0  0  0  0  0  0  0  0  0  0  0
  149.2460  147.1350   94.1470 C   0  0  0  0  0  0  0  0  0  0  0  0
  148.2000  146.1660   93.9750 C   0  0  0  0  0  0  0  0  0  0  0  0
  148.4090  145.4830   92.7010 C   0  0  0  0  0  0  0  0  0  0  0  0
  149.8530  144.8500   92.7100 C   0  0  0  0  0  0  0  0  0  0  0  0
  1  2  2  0
  2  3  1  0
  3 15  1  0
 15 16  1  0
 16 17  1  0
 17 18  1  0
 18 19  1  0
 19 20  1  0
 20 21  1  0
 21 22  1  0
  2  5  1  0
  5  6  2  0
  6  7  1  0
  7  8  2  0
  8  9  1  0
  9 10  2  0
 10 11  1  0
 11 12  1  0
 11 13  2  0
 13 14  1  0
 20 15  1  0
 14  5  1  0
 22 17  1  0
 13  7  1  0
  3  4  1  0
M  END
> <meeko>
{"is_sidechain": false}

> <source_group>
CHRFAM7A at B face

> <source_system>
CHRNA7_encenicline

> <source_run>
hybrid_B_face_seed20260825_ex32

> <source_seed>
20260825

> <vina_pose_rank>
16

> <vina_affinity_kcal_mol>
-5.093

> <vina_rmsd_to_crystal_angstrom>
9.6633999999999993

> <minimizedAffinity>
-5.09182

> <CNNscore>
0.0650125146

> <CNNaffinity>
3.6629517078

> <CNN_VS>
0.2381377071

> <CNNaffinity_variance>
1.1078330278

$$$$
CHRNA7_encenicline__hybrid_B_face_seed20260825_ex32__pose17


 22 25  0  0  0  0  0  0  0  0999 V2000
  146.1250  142.6140   93.6910 O   0  0  0  0  0  0  0  0  0  0  0  0
  145.6740  143.1710   94.6330 C   0  0  0  0  0  0  0  0  0  0  0  0
  146.3940  144.2820   95.2250 N   0  0  0  0  0  0  0  0  0  0  0  0
  146.0260  144.7520   96.0070 H   0  0  0  0  0  0  0  0  0  0  0  0
  144.3320  142.7140   95.2150 C   0  0  0  0  0  0  0  0  0  0  0  0
  143.5860  141.6790   94.7650 C   0  0  0  0  0  0  0  0  0  0  0  0
  142.3460  141.3670   95.4160 C   0  0  0  0  0  0  0  0  0  0  0  0
  141.4810  140.3570   95.0860 C   0  0  0  0  0  0  0  0  0  0  0  0
  140.3050  140.1780   95.8160 C   0  0  0  0  0  0  0  0  0  0  0  0
  140.0080  141.0340   96.8900 C   0  0  0  0  0  0  0  0  0  0  0  0
  140.8870  142.0660   97.2330 C   0  0  0  0  0  0  0  0  0  0  0  0
  140.5050  143.1470   98.5980 Cl  0  0  0  0  0  0  0  0  0  0  0  0
  142.0450  142.2440   96.5150 C   0  0  0  0  0  0  0  0  0  0  0  0
  143.4570  143.3900   96.5590 S   0  0  0  0  0  0  0  0  0  0  0  0
  147.6890  144.7030   94.6430 C   0  0  0  0  0  0  0  0  0  0  0  0
  147.6460  146.2050   94.2980 C   0  0  0  0  0  0  0  0  0  0  0  0
  148.6480  146.9090   94.9700 N   0  0  0  0  0  0  0  0  0  0  0  0
  149.8880  146.3970   94.6530 C   0  0  0  0  0  0  0  0  0  0  0  0
  149.9960  144.9490   95.0290 C   0  0  0  0  0  0  0  0  0  0  0  0
  148.7640  144.4880   95.6070 C   0  0  0  0  0  0  0  0  0  0  0  0
  148.4840  145.2910   96.7950 C   0  0  0  0  0  0  0  0  0  0  0  0
  148.4450  146.8070   96.3690 C   0  0  0  0  0  0  0  0  0  0  0  0
  1  2  2  0
  2  3  1  0
  3 15  1  0
 15 16  1  0
 16 17  1  0
 17 18  1  0
 18 19  1  0
 19 20  1  0
 20 21  1  0
 21 22  1  0
  2  5  1  0
  5  6  2  0
  6  7  1  0
  7  8  2  0
  8  9  1  0
  9 10  2  0
 10 11  1  0
 11 12  1  0
 11 13  2  0
 13 14  1  0
 20 15  1  0
 14  5  1  0
 22 17  1  0
 13  7  1  0
  3  4  1  0
M  END
> <meeko>
{"is_sidechain": false}

> <source_group>
CHRFAM7A at B face

> <source_system>
CHRNA7_encenicline

> <source_run>
hybrid_B_face_seed20260825_ex32

> <source_seed>
20260825

> <vina_pose_rank>
17

> <vina_affinity_kcal_mol>
-5.0700000000000003

> <vina_rmsd_to_crystal_angstrom>
10.0915

> <minimizedAffinity>
-5.06003

> <CNNscore>
0.0734619498

> <CNNaffinity>
3.2598559856

> <CNN_VS>
0.2394753695

> <CNNaffinity_variance>
1.5048617125

$$$$
CHRNA7_encenicline__hybrid_B_face_seed20260825_ex32__pose18


 22 25  0  0  0  0  0  0  0  0999 V2000
  148.0110  138.4540   89.5150 O   0  0  0  0  0  0  0  0  0  0  0  0
  147.7650  138.2720   90.6590 C   0  0  0  0  0  0  0  0  0  0  0  0
  148.7430  137.6250   91.5120 N   0  0  0  0  0  0  0  0  0  0  0  0
  148.5480  137.4720   92.4640 H   0  0  0  0  0  0  0  0  0  0  0  0
  146.4150  138.7250   91.2260 C   0  0  0  0  0  0  0  0  0  0  0  0
  146.1310  138.9180   92.5350 C   0  0  0  0  0  0  0  0  0  0  0  0
  144.8160  139.3480   92.9160 C   0  0  0  0  0  0  0  0  0  0  0  0
  144.3720  139.5890   94.1890 C   0  0  0  0  0  0  0  0  0  0  0  0
  143.0570  140.0040   94.4030 C   0  0  0  0  0  0  0  0  0  0  0  0
  142.1870  140.1740   93.3120 C   0  0  0  0  0  0  0  0  0  0  0  0
  142.6350  139.9300   92.0100 C   0  0  0  0  0  0  0  0  0  0  0  0
  141.5270  140.1490   90.6300 Cl  0  0  0  0  0  0  0  0  0  0  0  0
  143.9290  139.5220   91.7970 C   0  0  0  0  0  0  0  0  0  0  0  0
  144.9530  139.0930   90.3570 S   0  0  0  0  0  0  0  0  0  0  0  0
  150.0400  137.1970   90.9380 C   0  0  0  0  0  0  0  0  0  0  0  0
  151.0810  138.3230   91.0950 C   0  0  0  0  0  0  0  0  0  0  0  0
  152.1890  137.8900   91.8270 N   0  0  0  0  0  0  0  0  0  0  0  0
  152.7740  136.8030   91.2140 C   0  0  0  0  0  0  0  0  0  0  0  0
  151.8110  135.6580   91.0950 C   0  0  0  0  0  0  0  0  0  0  0  0
  150.5340  136.0180   91.6440 C   0  0  0  0  0  0  0  0  0  0  0  0
  150.7190  136.3680   93.0500 C   0  0  0  0  0  0  0  0  0  0  0  0
  151.7840  137.5270   93.1350 C   0  0  0  0  0  0  0  0  0  0  0  0
  1  2  2  0
  2  3  1  0
  3 15  1  0
 15 16  1  0
 16 17  1  0
 17 18  1  0
 18 19  1  0
 19 20  1  0
 20 21  1  0
 21 22  1  0
  2  5  1  0
  5  6  2  0
  6  7  1  0
  7  8  2  0
  8  9  1  0
  9 10  2  0
 10 11  1  0
 11 12  1  0
 11 13  2  0
 13 14  1  0
 20 15  1  0
 14  5  1  0
 22 17  1  0
 13  7  1  0
  3  4  1  0
M  END
> <meeko>
{"is_sidechain": false}

> <source_group>
CHRFAM7A at B face

> <source_system>
CHRNA7_encenicline

> <source_run>
hybrid_B_face_seed20260825_ex32

> <source_seed>
20260825

> <vina_pose_rank>
18

> <vina_affinity_kcal_mol>
-5.0410000000000004

> <vina_rmsd_to_crystal_angstrom>
9.0478000000000005

> <minimizedAffinity>
-5.04074

> <CNNscore>
0.3428122997

> <CNNaffinity>
4.5436644554

> <CNN_VS>
1.5576241016

> <CNNaffinity_variance>
0.5462033749

$$$$
CHRNA7_encenicline__hybrid_B_face_seed20260825_ex32__pose19


 22 25  0  0  0  0  0  0  0  0999 V2000
  148.3010  137.6150   92.2440 O   0  0  0  0  0  0  0  0  0  0  0  0
  148.0860  138.1530   91.2110 C   0  0  0  0  0  0  0  0  0  0  0  0
  146.7520  138.6410   90.9180 N   0  0  0  0  0  0  0  0  0  0  0  0
  146.5660  139.0920   90.0630 H   0  0  0  0  0  0  0  0  0  0  0  0
  149.2210  138.3300   90.1970 C   0  0  0  0  0  0  0  0  0  0  0  0
  150.4610  138.8000   90.4710 C   0  0  0  0  0  0  0  0  0  0  0  0
  151.4240  138.9080   89.4120 C   0  0  0  0  0  0  0  0  0  0  0  0
  152.7120  139.3590   89.5230 C   0  0  0  0  0  0  0  0  0  0  0  0
  153.5350  139.4090   88.3970 C   0  0  0  0  0  0  0  0  0  0  0  0
  153.0410  138.9950   87.1480 C   0  0  0  0  0  0  0  0  0  0  0  0
  151.7270  138.5320   87.0280 C   0  0  0  0  0  0  0  0  0  0  0  0
  151.1070  138.0060   85.4420 Cl  0  0  0  0  0  0  0  0  0  0  0  0
  150.9150  138.4830   88.1360 C   0  0  0  0  0  0  0  0  0  0  0  0
  149.2040  137.9820   88.4920 S   0  0  0  0  0  0  0  0  0  0  0  0
  145.6740  138.4580   91.9150 C   0  0  0  0  0  0  0  0  0  0  0  0
  145.4330  139.7750   92.6780 C   0  0  0  0  0  0  0  0  0  0  0  0
  144.1130  140.2090   92.5360 N   0  0  0  0  0  0  0  0  0  0  0  0
  143.2400  139.2460   92.9920 C   0  0  0  0  0  0  0  0  0  0  0  0
  143.3970  137.9610   92.2340 C   0  0  0  0  0  0  0  0  0  0  0  0
  144.4310  138.0860   91.2450 C   0  0  0  0  0  0  0  0  0  0  0  0
  144.0640  139.1620   90.3280 C   0  0  0  0  0  0  0  0  0  0  0  0
  143.8430  140.4750   91.1710 C   0  0  0  0  0  0  0  0  0  0  0  0
  1  2  2  0
  2  3  1  0
  3 15  1  0
 15 16  1  0
 16 17  1  0
 17 18  1  0
 18 19  1  0
 19 20  1  0
 20 21  1  0
 21 22  1  0
  2  5  1  0
  5  6  2  0
  6  7  1  0
  7  8  2  0
  8  9  1  0
  9 10  2  0
 10 11  1  0
 11 12  1  0
 11 13  2  0
 13 14  1  0
 20 15  1  0
 14  5  1  0
 22 17  1  0
 13  7  1  0
  3  4  1  0
M  END
> <meeko>
{"is_sidechain": false}

> <source_group>
CHRFAM7A at B face

> <source_system>
CHRNA7_encenicline

> <source_run>
hybrid_B_face_seed20260825_ex32

> <source_seed>
20260825

> <vina_pose_rank>
19

> <vina_affinity_kcal_mol>
-4.9969999999999999

> <vina_rmsd_to_crystal_angstrom>
6.8574000000000002

> <minimizedAffinity>
-4.98210

> <CNNscore>
0.0770424306

> <CNNaffinity>
4.7286591530

> <CNN_VS>
0.3643074036

> <CNNaffinity_variance>
0.2632981241

$$$$
CHRNA7_encenicline__hybrid_B_face_seed20260825_ex32__pose20


 22 25  0  0  0  0  0  0  0  0999 V2000
  150.0480  134.9660   89.8450 O   0  0  0  0  0  0  0  0  0  0  0  0
  150.1150  136.1390   89.6960 C   0  0  0  0  0  0  0  0  0  0  0  0
  149.6620  136.7340   88.4530 N   0  0  0  0  0  0  0  0  0  0  0  0
  149.7120  137.7080   88.3220 H   0  0  0  0  0  0  0  0  0  0  0  0
  150.6760  137.0160   90.8200 C   0  0  0  0  0  0  0  0  0  0  0  0
  151.2780  136.5690   91.9470 C   0  0  0  0  0  0  0  0  0  0  0  0
  151.7570  137.5150   92.9140 C   0  0  0  0  0  0  0  0  0  0  0  0
  152.3860  137.2270   94.0970 C   0  0  0  0  0  0  0  0  0  0  0  0
  152.7960  138.2610   94.9390 C   0  0  0  0  0  0  0  0  0  0  0  0
  152.5640  139.5980   94.5750 C   0  0  0  0  0  0  0  0  0  0  0  0
  151.9240  139.8990   93.3680 C   0  0  0  0  0  0  0  0  0  0  0  0
  151.6340  141.5980   92.9100 Cl  0  0  0  0  0  0  0  0  0  0  0  0
  151.5190  138.8830   92.5370 C   0  0  0  0  0  0  0  0  0  0  0  0
  150.6810  138.7530   90.9280 S   0  0  0  0  0  0  0  0  0  0  0  0
  149.1240  135.8640   87.3830 C   0  0  0  0  0  0  0  0  0  0  0  0
  147.7840  136.4290   86.8700 C   0  0  0  0  0  0  0  0  0  0  0  0
  147.8400  136.6970   85.5000 N   0  0  0  0  0  0  0  0  0  0  0  0
  148.1560  135.5540   84.8000 C   0  0  0  0  0  0  0  0  0  0  0  0
  149.4850  135.0010   85.2250 C   0  0  0  0  0  0  0  0  0  0  0  0
  150.0570  135.8140   86.2610 C   0  0  0  0  0  0  0  0  0  0  0  0
  150.2250  137.1700   85.7430 C   0  0  0  0  0  0  0  0  0  0  0  0
  148.8210  137.6870   85.2480 C   0  0  0  0  0  0  0  0  0  0  0  0
  1  2  2  0
  2  3  1  0
  3 15  1  0
 15 16  1  0
 16 17  1  0
 17 18  1  0
 18 19  1  0
 19 20  1  0
 20 21  1  0
 21 22  1  0
  2  5  1  0
  5  6  2  0
  6  7  1  0
  7  8  2  0
  8  9  1  0
  9 10  2  0
 10 11  1  0
 11 12  1  0
 11 13  2  0
 13 14  1  0
 20 15  1  0
 14  5  1  0
 22 17  1  0
 13  7  1  0
  3  4  1  0
M  END
> <meeko>
{"is_sidechain": false}

> <source_group>
CHRFAM7A at B face

> <source_system>
CHRNA7_encenicline

> <source_run>
hybrid_B_face_seed20260825_ex32

> <source_seed>
20260825

> <vina_pose_rank>
20

> <vina_affinity_kcal_mol>
-4.8769999999999998

> <vina_rmsd_to_crystal_angstrom>
9.1014999999999997

> <minimizedAffinity>
-4.86587

> <CNNscore>
0.0676809475

> <CNNaffinity>
3.9151849747

> <CNN_VS>
0.2649834156

> <CNNaffinity_variance>
0.6627560258

$$$$
