FYN_saracatinib__vina_initial_seed20260824_ex16__pose01
     RDKit          3D

 72 77  0  0  0  0  0  0  0  0999 V2000
   -9.2740   13.7220   -0.1720 C   0  0  0  0  0  0  0  0  0  0  0  0
   -8.4340   13.9950   -1.3250 N   0  0  0  0  0  0  0  0  0  0  0  0
   -9.0670   13.4990   -2.5350 C   0  0  0  0  0  0  0  0  0  0  0  0
   -8.2380   13.8250   -3.7860 C   0  0  0  0  0  0  0  0  0  0  0  0
   -7.9780   15.2550   -3.9230 N   0  0  0  0  0  0  0  0  0  0  0  0
   -7.1330   15.4750   -5.0910 C   0  0  0  0  0  0  0  0  0  0  0  0
   -7.8450   15.4890   -6.4550 C   0  0  0  0  0  0  0  0  0  0  0  0
   -9.1180   16.0870   -6.3900 O   0  0  0  0  0  0  0  0  0  0  0  0
   -9.9350   15.8740   -7.4730 C   0  0  0  0  0  0  0  0  0  0  0  0
  -11.0220   16.6150   -7.7150 C   0  0  0  0  0  0  0  0  0  0  0  0
  -11.8080   16.3810   -8.7760 C   0  0  0  0  0  0  0  0  0  0  0  0
  -11.5610   15.3810   -9.6670 C   0  0  0  0  0  0  0  0  0  0  0  0
  -10.4630   14.6080   -9.4370 C   0  0  0  0  0  0  0  0  0  0  0  0
  -10.1070   13.5780  -10.2880 O   0  0  0  0  0  0  0  0  0  0  0  0
  -10.0000   12.2400   -9.8650 C   0  0  0  0  0  0  0  0  0  0  0  0
  -11.1030   11.8190   -8.8930 C   0  0  0  0  0  0  0  0  0  0  0  0
  -11.1620   10.3010   -8.7520 C   0  0  0  0  0  0  0  0  0  0  0  0
  -11.3410    9.6880  -10.0060 O   0  0  0  0  0  0  0  0  0  0  0  0
  -10.2200    9.9070  -10.8190 C   0  0  0  0  0  0  0  0  0  0  0  0
  -10.0990   11.3920  -11.1430 C   0  0  0  0  0  0  0  0  0  0  0  0
   -9.6970   14.8870   -8.3580 C   0  0  0  0  0  0  0  0  0  0  0  0
  -12.4390   15.2580  -10.7030 C   0  0  0  0  0  0  0  0  0  0  0  0
  -12.5340   14.4550  -11.6990 N   0  0  0  0  0  0  0  0  0  0  0  0
  -13.4180   14.1120  -12.5590 C   0  0  0  0  0  0  0  0  0  0  0  0
  -14.1710   12.9950  -12.3530 C   0  0  0  0  0  0  0  0  0  0  0  0
  -14.0210   11.9650  -10.9580 Cl  0  0  0  0  0  0  0  0  0  0  0  0
  -15.1190   12.6160  -13.2330 C   0  0  0  0  0  0  0  0  0  0  0  0
  -15.3560   13.3120  -14.3530 C   0  0  0  0  0  0  0  0  0  0  0  0
  -14.6210   14.4050  -14.5700 C   0  0  0  0  0  0  0  0  0  0  0  0
  -13.6790   14.7910  -13.7000 C   0  0  0  0  0  0  0  0  0  0  0  0
  -13.1350   15.8190  -14.1080 O   0  0  0  0  0  0  0  0  0  0  0  0
  -13.6810   16.1490  -15.3840 C   0  0  0  0  0  0  0  0  0  0  0  0
  -14.6940   15.1610  -15.5380 O   0  0  0  0  0  0  0  0  0  0  0  0
  -13.4180   16.0770  -10.7500 N   0  0  0  0  0  0  0  0  0  0  0  0
  -13.5590   16.9690   -9.8690 C   0  0  0  0  0  0  0  0  0  0  0  0
  -12.8010   17.1610   -8.8830 N   0  0  0  0  0  0  0  0  0  0  0  0
   -7.3350   15.7190   -2.7020 C   0  0  0  0  0  0  0  0  0  0  0  0
   -8.1880   15.4200   -1.4550 C   0  0  0  0  0  0  0  0  0  0  0  0
   -8.7031   13.9075    0.7497 H   0  0  0  0  0  0  0  0  0  0  0  0
  -10.1552   14.3800   -0.1963 H   0  0  0  0  0  0  0  0  0  0  0  0
   -9.5999   12.6717   -0.1963 H   0  0  0  0  0  0  0  0  0  0  0  0
   -9.1793   12.4076   -2.4566 H   0  0  0  0  0  0  0  0  0  0  0  0
  -10.0459   13.9905   -2.6354 H   0  0  0  0  0  0  0  0  0  0  0  0
   -7.2760   13.2955   -3.7204 H   0  0  0  0  0  0  0  0  0  0  0  0
   -8.8156   13.5029   -4.6650 H   0  0  0  0  0  0  0  0  0  0  0  0
   -6.6325   16.4463   -4.9643 H   0  0  0  0  0  0  0  0  0  0  0  0
   -6.4503   14.6132   -5.1255 H   0  0  0  0  0  0  0  0  0  0  0  0
   -7.2268   16.0511   -7.1704 H   0  0  0  0  0  0  0  0  0  0  0  0
   -7.9809   14.4448   -6.7731 H   0  0  0  0  0  0  0  0  0  0  0  0
  -11.2770   17.4352   -7.0278 H   0  0  0  0  0  0  0  0  0  0  0  0
   -9.0542   12.1042   -9.3200 H   0  0  0  0  0  0  0  0  0  0  0  0
  -10.9019   12.2637   -7.9072 H   0  0  0  0  0  0  0  0  0  0  0  0
  -12.0681   12.1707   -9.2866 H   0  0  0  0  0  0  0  0  0  0  0  0
  -10.2216    9.9436   -8.3071 H   0  0  0  0  0  0  0  0  0  0  0  0
  -12.0146   10.0402   -8.1078 H   0  0  0  0  0  0  0  0  0  0  0  0
   -9.3148    9.5737  -10.2904 H   0  0  0  0  0  0  0  0  0  0  0  0
  -10.3333    9.3393  -11.7543 H   0  0  0  0  0  0  0  0  0  0  0  0
   -9.1959   11.5532  -11.7500 H   0  0  0  0  0  0  0  0  0  0  0  0
  -11.0002   11.7002  -11.6933 H   0  0  0  0  0  0  0  0  0  0  0  0
   -8.8100   14.2585   -8.1899 H   0  0  0  0  0  0  0  0  0  0  0  0
  -11.8194   15.9358  -11.3086 H   0  0  0  0  0  0  0  0  0  0  0  0
  -11.6400   13.9230  -11.8660 H   0  0  0  0  0  0  0  0  0  0  0  0
  -15.7126   11.7132  -13.0266 H   0  0  0  0  0  0  0  0  0  0  0  0
  -16.1288   12.9941  -15.0683 H   0  0  0  0  0  0  0  0  0  0  0  0
  -14.1081   17.1627  -15.3857 H   0  0  0  0  0  0  0  0  0  0  0  0
  -12.9389   16.1530  -16.1959 H   0  0  0  0  0  0  0  0  0  0  0  0
  -14.4240   17.6406   -9.9722 H   0  0  0  0  0  0  0  0  0  0  0  0
  -12.9700   17.8790   -8.2300 H   0  0  0  0  0  0  0  0  0  0  0  0
   -6.3633   15.2141   -2.5977 H   0  0  0  0  0  0  0  0  0  0  0  0
   -7.2092   16.8093   -2.7758 H   0  0  0  0  0  0  0  0  0  0  0  0
   -7.6559   15.7767   -0.5607 H   0  0  0  0  0  0  0  0  0  0  0  0
   -9.1543   15.9354   -1.5583 H   0  0  0  0  0  0  0  0  0  0  0  0
  1  2  1  0
  2  3  1  0
  3  4  1  0
  4  5  1  0
  5  6  1  0
  6  7  1  0
  7  8  1  0
  8  9  1  0
  9 10  2  0
 10 11  1  0
 11 12  2  0
 12 13  1  0
 13 14  1  0
 14 15  1  0
 15 16  1  0
 16 17  1  0
 17 18  1  0
 18 19  1  0
 19 20  1  0
 13 21  2  0
 12 22  1  0
 22 23  1  0
 23 24  1  0
 24 25  2  0
 25 26  1  0
 25 27  1  0
 27 28  2  0
 28 29  1  0
 29 30  2  0
 30 31  1  0
 31 32  1  0
 32 33  1  0
 22 34  1  0
 34 35  2  0
 35 36  1  0
  5 37  1  0
 37 38  1  0
 38  2  1  0
 21  9  1  0
 30 24  1  0
 36 11  1  0
 20 15  1  0
 33 29  1  0
  1 39  1  0
  1 40  1  0
  1 41  1  0
  3 42  1  0
  3 43  1  0
  4 44  1  0
  4 45  1  0
  6 46  1  0
  6 47  1  0
  7 48  1  0
  7 49  1  0
 10 50  1  0
 15 51  1  0
 16 52  1  0
 16 53  1  0
 17 54  1  0
 17 55  1  0
 19 56  1  0
 19 57  1  0
 20 58  1  0
 20 59  1  0
 21 60  1  0
 22 61  1  0
 23 62  1  0
 27 63  1  0
 28 64  1  0
 32 65  1  0
 32 66  1  0
 35 67  1  0
 36 68  1  0
 37 69  1  0
 37 70  1  0
 38 71  1  0
 38 72  1  0
M  END
>  <meeko>  (1)
{"is_sidechain": false}

>  <source_group>  (1)
FYN canonical

>  <source_system>  (1)
FYN_saracatinib

>  <source_run>  (1)
vina_initial_seed20260824_ex16

>  <source_seed>  (1)
20260824

>  <vina_pose_rank>  (1)
1

>  <vina_affinity_kcal_mol>  (1)
-9.1549999999999994

>  <vina_rmsd_to_crystal_angstrom>  (1)
1.8531

$$$$
FYN_saracatinib__vina_initial_seed20260824_ex16__pose02
     RDKit          3D

 72 77  0  0  0  0  0  0  0  0999 V2000
   -9.6050    9.2180   -9.0790 C   0  0  0  0  0  0  0  0  0  0  0  0
   -9.6350   10.6430   -8.8000 N   0  0  0  0  0  0  0  0  0  0  0  0
  -10.8640   10.9930   -8.1100 C   0  0  0  0  0  0  0  0  0  0  0  0
  -10.9060   12.4830   -7.7410 C   0  0  0  0  0  0  0  0  0  0  0  0
   -9.7600   12.8870   -6.9310 N   0  0  0  0  0  0  0  0  0  0  0  0
   -9.8370   14.3220   -6.6810 C   0  0  0  0  0  0  0  0  0  0  0  0
   -9.6850   15.2370   -7.9080 C   0  0  0  0  0  0  0  0  0  0  0  0
  -10.7430   16.1590   -8.0250 O   0  0  0  0  0  0  0  0  0  0  0  0
  -11.6330   15.9210   -9.0430 C   0  0  0  0  0  0  0  0  0  0  0  0
  -12.7140   16.6830   -9.2500 C   0  0  0  0  0  0  0  0  0  0  0  0
  -13.5730   16.4250  -10.2460 C   0  0  0  0  0  0  0  0  0  0  0  0
  -13.4110   15.3790  -11.1040 C   0  0  0  0  0  0  0  0  0  0  0  0
  -12.3210   14.5860  -10.9090 C   0  0  0  0  0  0  0  0  0  0  0  0
  -12.0480   13.5090  -11.7320 O   0  0  0  0  0  0  0  0  0  0  0  0
  -12.0440   12.1790  -11.2740 C   0  0  0  0  0  0  0  0  0  0  0  0
  -13.4370   11.6470  -10.9340 C   0  0  0  0  0  0  0  0  0  0  0  0
  -13.4280   10.1280  -10.7980 C   0  0  0  0  0  0  0  0  0  0  0  0
  -12.9350    9.5230  -11.9680 O   0  0  0  0  0  0  0  0  0  0  0  0
  -11.5850    9.8510  -12.1550 C   0  0  0  0  0  0  0  0  0  0  0  0
  -11.4500   11.3460  -12.4220 C   0  0  0  0  0  0  0  0  0  0  0  0
  -11.4790   14.8900   -9.8950 C   0  0  0  0  0  0  0  0  0  0  0  0
  -14.3580   15.2350  -12.0760 C   0  0  0  0  0  0  0  0  0  0  0  0
  -14.5380   14.3930  -13.0250 N   0  0  0  0  0  0  0  0  0  0  0  0
  -14.8430   14.4150  -14.2680 C   0  0  0  0  0  0  0  0  0  0  0  0
  -14.0720   15.1200  -15.1450 C   0  0  0  0  0  0  0  0  0  0  0  0
  -12.6540   16.0190  -14.6870 Cl  0  0  0  0  0  0  0  0  0  0  0  0
  -14.3580   15.1510  -16.4610 C   0  0  0  0  0  0  0  0  0  0  0  0
  -15.4160   14.5020  -16.9660 C   0  0  0  0  0  0  0  0  0  0  0  0
  -16.1830   13.8130  -16.1160 C   0  0  0  0  0  0  0  0  0  0  0  0
  -15.9050   13.7740  -14.8070 C   0  0  0  0  0  0  0  0  0  0  0  0
  -16.7440   13.0820  -14.2260 O   0  0  0  0  0  0  0  0  0  0  0  0
  -17.7200   12.6560  -15.1760 C   0  0  0  0  0  0  0  0  0  0  0  0
  -17.1900   13.1640  -16.3950 O   0  0  0  0  0  0  0  0  0  0  0  0
  -15.3150   16.0790  -12.0970 N   0  0  0  0  0  0  0  0  0  0  0  0
  -15.3760   17.0140  -11.2510 C   0  0  0  0  0  0  0  0  0  0  0  0
  -14.5510   17.2280  -10.3260 N   0  0  0  0  0  0  0  0  0  0  0  0
   -8.5470   12.5340   -7.6520 C   0  0  0  0  0  0  0  0  0  0  0  0
   -8.4960   11.0310   -7.9890 C   0  0  0  0  0  0  0  0  0  0  0  0
   -9.5932    8.6591   -8.1317 H   0  0  0  0  0  0  0  0  0  0  0  0
  -10.4975    8.9389   -9.6583 H   0  0  0  0  0  0  0  0  0  0  0  0
   -8.7016    8.9767   -9.6583 H   0  0  0  0  0  0  0  0  0  0  0  0
  -11.7177   10.7641   -8.7649 H   0  0  0  0  0  0  0  0  0  0  0  0
  -10.9121   10.4086   -7.1793 H   0  0  0  0  0  0  0  0  0  0  0  0
  -10.9112   13.0765   -8.6671 H   0  0  0  0  0  0  0  0  0  0  0  0
  -11.8153   12.6565   -7.1468 H   0  0  0  0  0  0  0  0  0  0  0  0
  -10.8167   14.5309   -6.2266 H   0  0  0  0  0  0  0  0  0  0  0  0
   -8.9777   14.5534   -6.0345 H   0  0  0  0  0  0  0  0  0  0  0  0
   -8.7401   15.7931   -7.8190 H   0  0  0  0  0  0  0  0  0  0  0  0
   -9.6950   14.5998   -8.8046 H   0  0  0  0  0  0  0  0  0  0  0  0
  -12.9016   17.5407   -8.5873 H   0  0  0  0  0  0  0  0  0  0  0  0
  -11.4649   12.1176  -10.3408 H   0  0  0  0  0  0  0  0  0  0  0  0
  -13.7686   12.0906   -9.9836 H   0  0  0  0  0  0  0  0  0  0  0  0
  -14.1232   11.9201  -11.7492 H   0  0  0  0  0  0  0  0  0  0  0  0
  -12.7876    9.8461   -9.9493 H   0  0  0  0  0  0  0  0  0  0  0  0
  -14.4594    9.7836  -10.6316 H   0  0  0  0  0  0  0  0  0  0  0  0
  -11.0166    9.5886  -11.2505 H   0  0  0  0  0  0  0  0  0  0  0  0
  -11.1905    9.2908  -13.0156 H   0  0  0  0  0  0  0  0  0  0  0  0
  -10.3840   11.5950  -12.5300 H   0  0  0  0  0  0  0  0  0  0  0  0
  -12.0027   11.5836  -13.3429 H   0  0  0  0  0  0  0  0  0  0  0  0
  -10.5995   14.2442   -9.7556 H   0  0  0  0  0  0  0  0  0  0  0  0
  -13.7621   15.8676  -12.7503 H   0  0  0  0  0  0  0  0  0  0  0  0
  -14.3990   13.3990  -12.7040 H   0  0  0  0  0  0  0  0  0  0  0  0
  -13.7068   15.7234  -17.1380 H   0  0  0  0  0  0  0  0  0  0  0  0
  -15.6448   14.5352  -18.0414 H   0  0  0  0  0  0  0  0  0  0  0  0
  -17.8003   11.5592  -15.2017 H   0  0  0  0  0  0  0  0  0  0  0  0
  -18.7378   13.0095  -14.9542 H   0  0  0  0  0  0  0  0  0  0  0  0
  -16.2285   17.7046  -11.3300 H   0  0  0  0  0  0  0  0  0  0  0  0
  -14.6580   17.9790   -9.6970 H   0  0  0  0  0  0  0  0  0  0  0  0
   -8.5095   13.1100   -8.5884 H   0  0  0  0  0  0  0  0  0  0  0  0
   -7.6868   12.7684   -7.0077 H   0  0  0  0  0  0  0  0  0  0  0  0
   -7.5700   10.8174   -8.5430 H   0  0  0  0  0  0  0  0  0  0  0  0
   -8.5225   10.4592   -7.0497 H   0  0  0  0  0  0  0  0  0  0  0  0
  1  2  1  0
  2  3  1  0
  3  4  1  0
  4  5  1  0
  5  6  1  0
  6  7  1  0
  7  8  1  0
  8  9  1  0
  9 10  2  0
 10 11  1  0
 11 12  2  0
 12 13  1  0
 13 14  1  0
 14 15  1  0
 15 16  1  0
 16 17  1  0
 17 18  1  0
 18 19  1  0
 19 20  1  0
 13 21  2  0
 12 22  1  0
 22 23  1  0
 23 24  1  0
 24 25  2  0
 25 26  1  0
 25 27  1  0
 27 28  2  0
 28 29  1  0
 29 30  2  0
 30 31  1  0
 31 32  1  0
 32 33  1  0
 22 34  1  0
 34 35  2  0
 35 36  1  0
  5 37  1  0
 37 38  1  0
 38  2  1  0
 21  9  1  0
 30 24  1  0
 36 11  1  0
 20 15  1  0
 33 29  1  0
  1 39  1  0
  1 40  1  0
  1 41  1  0
  3 42  1  0
  3 43  1  0
  4 44  1  0
  4 45  1  0
  6 46  1  0
  6 47  1  0
  7 48  1  0
  7 49  1  0
 10 50  1  0
 15 51  1  0
 16 52  1  0
 16 53  1  0
 17 54  1  0
 17 55  1  0
 19 56  1  0
 19 57  1  0
 20 58  1  0
 20 59  1  0
 21 60  1  0
 22 61  1  0
 23 62  1  0
 27 63  1  0
 28 64  1  0
 32 65  1  0
 32 66  1  0
 35 67  1  0
 36 68  1  0
 37 69  1  0
 37 70  1  0
 38 71  1  0
 38 72  1  0
M  END
>  <meeko>  (2)
{"is_sidechain": false}

>  <source_group>  (2)
FYN canonical

>  <source_system>  (2)
FYN_saracatinib

>  <source_run>  (2)
vina_initial_seed20260824_ex16

>  <source_seed>  (2)
20260824

>  <vina_pose_rank>  (2)
2

>  <vina_affinity_kcal_mol>  (2)
-8.9740000000000002

>  <vina_rmsd_to_crystal_angstrom>  (2)
4.3964999999999996

$$$$
FYN_saracatinib__vina_initial_seed20260824_ex16__pose03
     RDKit          3D

 72 77  0  0  0  0  0  0  0  0999 V2000
   -9.1100   14.1640    0.9060 C   0  0  0  0  0  0  0  0  0  0  0  0
   -8.4500   14.4650   -0.3530 N   0  0  0  0  0  0  0  0  0  0  0  0
   -8.9670   13.6110   -1.4070 C   0  0  0  0  0  0  0  0  0  0  0  0
   -8.3390   13.9430   -2.7680 C   0  0  0  0  0  0  0  0  0  0  0  0
   -8.5240   15.3420   -3.1400 N   0  0  0  0  0  0  0  0  0  0  0  0
   -7.8440   15.5920   -4.4060 C   0  0  0  0  0  0  0  0  0  0  0  0
   -8.6260   15.2380   -5.6820 C   0  0  0  0  0  0  0  0  0  0  0  0
   -9.3990   16.3150   -6.1540 O   0  0  0  0  0  0  0  0  0  0  0  0
  -10.1320   16.0720   -7.2900 C   0  0  0  0  0  0  0  0  0  0  0  0
  -11.2370   16.7610   -7.5970 C   0  0  0  0  0  0  0  0  0  0  0  0
  -11.9400   16.4990   -8.7090 C   0  0  0  0  0  0  0  0  0  0  0  0
  -11.5850   15.5210   -9.5890 C   0  0  0  0  0  0  0  0  0  0  0  0
  -10.4670   14.8020   -9.2930 C   0  0  0  0  0  0  0  0  0  0  0  0
  -10.0050   13.8000  -10.1260 O   0  0  0  0  0  0  0  0  0  0  0  0
   -9.8890   12.4590   -9.7150 C   0  0  0  0  0  0  0  0  0  0  0  0
  -11.0230   12.0010   -8.7970 C   0  0  0  0  0  0  0  0  0  0  0  0
  -11.0550   10.4810   -8.6780 C   0  0  0  0  0  0  0  0  0  0  0  0
  -11.1670    9.8820   -9.9460 O   0  0  0  0  0  0  0  0  0  0  0  0
  -10.0170   10.1340  -10.7080 C   0  0  0  0  0  0  0  0  0  0  0  0
   -9.9150   11.6260  -11.0070 C   0  0  0  0  0  0  0  0  0  0  0  0
   -9.7880   15.1080   -8.1640 C   0  0  0  0  0  0  0  0  0  0  0  0
  -12.3880   15.3650  -10.6810 C   0  0  0  0  0  0  0  0  0  0  0  0
  -12.3780   14.5690  -11.6860 N   0  0  0  0  0  0  0  0  0  0  0  0
  -13.2220   13.8870  -12.3640 C   0  0  0  0  0  0  0  0  0  0  0  0
  -13.6440   14.3390  -13.5790 C   0  0  0  0  0  0  0  0  0  0  0  0
  -13.0990   15.8240  -14.3060 Cl  0  0  0  0  0  0  0  0  0  0  0  0
  -14.5210   13.6370  -14.3230 C   0  0  0  0  0  0  0  0  0  0  0  0
  -15.0260   12.4710  -13.9000 C   0  0  0  0  0  0  0  0  0  0  0  0
  -14.6250   12.0190  -12.7080 C   0  0  0  0  0  0  0  0  0  0  0  0
  -13.7520   12.7090  -11.9630 C   0  0  0  0  0  0  0  0  0  0  0  0
  -13.5340   12.1010  -10.9130 O   0  0  0  0  0  0  0  0  0  0  0  0
  -14.3560   10.9360  -10.8810 C   0  0  0  0  0  0  0  0  0  0  0  0
  -14.9810   10.9780  -12.1580 O   0  0  0  0  0  0  0  0  0  0  0  0
  -13.4010   16.1340  -10.7850 N   0  0  0  0  0  0  0  0  0  0  0  0
  -13.6440   17.0090   -9.9090 C   0  0  0  0  0  0  0  0  0  0  0  0
  -12.9630   17.2290   -8.8750 N   0  0  0  0  0  0  0  0  0  0  0  0
   -7.9870   16.1710   -2.0710 C   0  0  0  0  0  0  0  0  0  0  0  0
   -8.6460   15.8570   -0.7140 C   0  0  0  0  0  0  0  0  0  0  0  0
   -8.4590   14.4609    1.7415 H   0  0  0  0  0  0  0  0  0  0  0  0
  -10.0580   14.7188    0.9648 H   0  0  0  0  0  0  0  0  0  0  0  0
   -9.3127   13.0844    0.9648 H   0  0  0  0  0  0  0  0  0  0  0  0
   -8.7440   12.5630   -1.1579 H   0  0  0  0  0  0  0  0  0  0  0  0
  -10.0519   13.7771   -1.4809 H   0  0  0  0  0  0  0  0  0  0  0  0
   -7.2609   13.7296   -2.7210 H   0  0  0  0  0  0  0  0  0  0  0  0
   -8.8396   13.3250   -3.5279 H   0  0  0  0  0  0  0  0  0  0  0  0
   -7.5999   16.6637   -4.4492 H   0  0  0  0  0  0  0  0  0  0  0  0
   -6.9685   14.9260   -4.4048 H   0  0  0  0  0  0  0  0  0  0  0  0
   -7.9107   14.9467   -6.4652 H   0  0  0  0  0  0  0  0  0  0  0  0
   -9.3128   14.4146   -5.4366 H   0  0  0  0  0  0  0  0  0  0  0  0
  -11.5768   17.5605   -6.9222 H   0  0  0  0  0  0  0  0  0  0  0  0
   -8.9652   12.3365   -9.1305 H   0  0  0  0  0  0  0  0  0  0  0  0
  -10.8740   12.4363   -7.7978 H   0  0  0  0  0  0  0  0  0  0  0  0
  -11.9777   12.3373   -9.2276 H   0  0  0  0  0  0  0  0  0  0  0  0
  -10.1269   10.1374   -8.1977 H   0  0  0  0  0  0  0  0  0  0  0  0
  -11.9283   10.1933   -8.0742 H   0  0  0  0  0  0  0  0  0  0  0  0
   -9.1280    9.8122  -10.1457 H   0  0  0  0  0  0  0  0  0  0  0  0
  -10.0776    9.5763  -11.6542 H   0  0  0  0  0  0  0  0  0  0  0  0
   -8.9907   11.8148  -11.5727 H   0  0  0  0  0  0  0  0  0  0  0  0
  -10.7989   11.9222  -11.5909 H   0  0  0  0  0  0  0  0  0  0  0  0
   -8.8832   14.5228   -7.9426 H   0  0  0  0  0  0  0  0  0  0  0  0
  -11.7659   16.0792  -11.2405 H   0  0  0  0  0  0  0  0  0  0  0  0
  -11.4070   14.4290  -12.0710 H   0  0  0  0  0  0  0  0  0  0  0  0
  -14.8299   14.0315  -15.3023 H   0  0  0  0  0  0  0  0  0  0  0  0
  -15.7448   11.9058  -14.5115 H   0  0  0  0  0  0  0  0  0  0  0  0
  -13.7522   10.0243  -10.7616 H   0  0  0  0  0  0  0  0  0  0  0  0
  -15.0659   10.9178  -10.0409 H   0  0  0  0  0  0  0  0  0  0  0  0
  -14.5335   17.6373  -10.0641 H   0  0  0  0  0  0  0  0  0  0  0  0
  -13.2100   17.9310   -8.2300 H   0  0  0  0  0  0  0  0  0  0  0  0
   -6.9048   15.9910   -1.9909 H   0  0  0  0  0  0  0  0  0  0  0  0
   -8.1971   17.2224   -2.3168 H   0  0  0  0  0  0  0  0  0  0  0  0
   -8.1978   16.4965    0.0606 H   0  0  0  0  0  0  0  0  0  0  0  0
   -9.7258   16.0506   -0.7945 H   0  0  0  0  0  0  0  0  0  0  0  0
  1  2  1  0
  2  3  1  0
  3  4  1  0
  4  5  1  0
  5  6  1  0
  6  7  1  0
  7  8  1  0
  8  9  1  0
  9 10  2  0
 10 11  1  0
 11 12  2  0
 12 13  1  0
 13 14  1  0
 14 15  1  0
 15 16  1  0
 16 17  1  0
 17 18  1  0
 18 19  1  0
 19 20  1  0
 13 21  2  0
 12 22  1  0
 22 23  1  0
 23 24  1  0
 24 25  2  0
 25 26  1  0
 25 27  1  0
 27 28  2  0
 28 29  1  0
 29 30  2  0
 30 31  1  0
 31 32  1  0
 32 33  1  0
 22 34  1  0
 34 35  2  0
 35 36  1  0
  5 37  1  0
 37 38  1  0
 38  2  1  0
 21  9  1  0
 30 24  1  0
 36 11  1  0
 20 15  1  0
 33 29  1  0
  1 39  1  0
  1 40  1  0
  1 41  1  0
  3 42  1  0
  3 43  1  0
  4 44  1  0
  4 45  1  0
  6 46  1  0
  6 47  1  0
  7 48  1  0
  7 49  1  0
 10 50  1  0
 15 51  1  0
 16 52  1  0
 16 53  1  0
 17 54  1  0
 17 55  1  0
 19 56  1  0
 19 57  1  0
 20 58  1  0
 20 59  1  0
 21 60  1  0
 22 61  1  0
 23 62  1  0
 27 63  1  0
 28 64  1  0
 32 65  1  0
 32 66  1  0
 35 67  1  0
 36 68  1  0
 37 69  1  0
 37 70  1  0
 38 71  1  0
 38 72  1  0
M  END
>  <meeko>  (3)
{"is_sidechain": false}

>  <source_group>  (3)
FYN canonical

>  <source_system>  (3)
FYN_saracatinib

>  <source_run>  (3)
vina_initial_seed20260824_ex16

>  <source_seed>  (3)
20260824

>  <vina_pose_rank>  (3)
3

>  <vina_affinity_kcal_mol>  (3)
-8.9649999999999999

>  <vina_rmsd_to_crystal_angstrom>  (3)
2.7244999999999999

$$$$
FYN_saracatinib__vina_initial_seed20260824_ex16__pose04
     RDKit          3D

 72 77  0  0  0  0  0  0  0  0999 V2000
   -8.3540   18.6660   -4.4310 C   0  0  0  0  0  0  0  0  0  0  0  0
   -7.8870   17.3110   -4.6700 N   0  0  0  0  0  0  0  0  0  0  0  0
   -8.6610   16.3670   -3.8840 C   0  0  0  0  0  0  0  0  0  0  0  0
   -8.2390   14.9170   -4.1580 C   0  0  0  0  0  0  0  0  0  0  0  0
   -8.3360   14.5670   -5.5720 N   0  0  0  0  0  0  0  0  0  0  0  0
   -7.8550   13.2030   -5.7590 C   0  0  0  0  0  0  0  0  0  0  0  0
   -8.7960   12.2460   -6.5110 C   0  0  0  0  0  0  0  0  0  0  0  0
  -10.1410   12.6550   -6.4470 O   0  0  0  0  0  0  0  0  0  0  0  0
  -10.6920   13.0840   -7.6300 C   0  0  0  0  0  0  0  0  0  0  0  0
  -11.1640   14.3250   -7.7980 C   0  0  0  0  0  0  0  0  0  0  0  0
  -11.7050   14.7180   -8.9600 C   0  0  0  0  0  0  0  0  0  0  0  0
  -11.8160   13.8890  -10.0360 C   0  0  0  0  0  0  0  0  0  0  0  0
  -11.3490   12.6190   -9.8860 C   0  0  0  0  0  0  0  0  0  0  0  0
  -11.3940   11.7000  -10.9180 O   0  0  0  0  0  0  0  0  0  0  0  0
  -10.8290   10.4150  -10.8220 C   0  0  0  0  0  0  0  0  0  0  0  0
  -11.8570    9.2870  -10.9200 C   0  0  0  0  0  0  0  0  0  0  0  0
  -11.1790    7.9450  -11.1760 C   0  0  0  0  0  0  0  0  0  0  0  0
  -10.3850    7.9980  -12.3360 O   0  0  0  0  0  0  0  0  0  0  0  0
   -9.3150    8.8850  -12.1540 C   0  0  0  0  0  0  0  0  0  0  0  0
   -9.8440   10.3070  -11.9980 C   0  0  0  0  0  0  0  0  0  0  0  0
  -10.8050   12.2710   -8.6970 C   0  0  0  0  0  0  0  0  0  0  0  0
  -12.3830   14.4200  -11.1580 C   0  0  0  0  0  0  0  0  0  0  0  0
  -12.6550   13.9570  -12.3220 N   0  0  0  0  0  0  0  0  0  0  0  0
  -13.6700   13.8760  -13.0970 C   0  0  0  0  0  0  0  0  0  0  0  0
  -14.6230   12.9260  -12.8730 C   0  0  0  0  0  0  0  0  0  0  0  0
  -14.5630   11.7780  -11.5660 Cl  0  0  0  0  0  0  0  0  0  0  0  0
  -15.7110   12.8240  -13.6620 C   0  0  0  0  0  0  0  0  0  0  0  0
  -15.9000   13.6430  -14.7060 C   0  0  0  0  0  0  0  0  0  0  0  0
  -14.9710   14.5730  -14.9400 C   0  0  0  0  0  0  0  0  0  0  0  0
  -13.8880   14.6840  -14.1590 C   0  0  0  0  0  0  0  0  0  0  0  0
  -13.1780   15.6060  -14.5650 O   0  0  0  0  0  0  0  0  0  0  0  0
  -13.7610   16.1430  -15.7510 C   0  0  0  0  0  0  0  0  0  0  0  0
  -14.9730   15.4040  -15.8470 O   0  0  0  0  0  0  0  0  0  0  0  0
  -12.7670   15.6360  -11.1070 N   0  0  0  0  0  0  0  0  0  0  0  0
  -12.6210   16.3200  -10.0560 C   0  0  0  0  0  0  0  0  0  0  0  0
  -12.1080   15.9190   -8.9790 N   0  0  0  0  0  0  0  0  0  0  0  0
   -7.5420   15.5230   -6.3310 C   0  0  0  0  0  0  0  0  0  0  0  0
   -7.9930   16.9740   -6.0780 C   0  0  0  0  0  0  0  0  0  0  0  0
   -8.4163   18.8467   -3.3477 H   0  0  0  0  0  0  0  0  0  0  0  0
   -7.6505   19.3812   -4.8822 H   0  0  0  0  0  0  0  0  0  0  0  0
   -9.3488   18.7959   -4.8822 H   0  0  0  0  0  0  0  0  0  0  0  0
   -8.5116   16.5857   -2.8164 H   0  0  0  0  0  0  0  0  0  0  0  0
   -9.7191   16.4743   -4.1650 H   0  0  0  0  0  0  0  0  0  0  0  0
   -7.1968   14.7848   -3.8320 H   0  0  0  0  0  0  0  0  0  0  0  0
   -8.9219   14.2581   -3.6017 H   0  0  0  0  0  0  0  0  0  0  0  0
   -6.9106   13.2546   -6.3206 H   0  0  0  0  0  0  0  0  0  0  0  0
   -7.7586   12.7843   -4.7464 H   0  0  0  0  0  0  0  0  0  0  0  0
   -8.4890   12.2058   -7.5665 H   0  0  0  0  0  0  0  0  0  0  0  0
   -8.7228   11.2586   -6.0317 H   0  0  0  0  0  0  0  0  0  0  0  0
  -11.1067   15.0391   -6.9633 H   0  0  0  0  0  0  0  0  0  0  0  0
  -10.3533   10.2992   -9.8370 H   0  0  0  0  0  0  0  0  0  0  0  0
  -12.4194    9.2308   -9.9763 H   0  0  0  0  0  0  0  0  0  0  0  0
  -12.5323    9.5027  -11.7611 H   0  0  0  0  0  0  0  0  0  0  0  0
  -10.5426    7.6927  -10.3150 H   0  0  0  0  0  0  0  0  0  0  0  0
  -11.9561    7.1792  -11.3162 H   0  0  0  0  0  0  0  0  0  0  0  0
   -8.7558    8.6021  -11.2500 H   0  0  0  0  0  0  0  0  0  0  0  0
   -8.6513    8.8383  -13.0300 H   0  0  0  0  0  0  0  0  0  0  0  0
   -8.9973   10.9859  -11.8188 H   0  0  0  0  0  0  0  0  0  0  0  0
  -10.3763   10.5808  -12.9209 H   0  0  0  0  0  0  0  0  0  0  0  0
  -10.4255   11.2437   -8.5942 H   0  0  0  0  0  0  0  0  0  0  0  0
  -11.3892   14.7299  -11.5135 H   0  0  0  0  0  0  0  0  0  0  0  0
  -11.8140   13.5170  -12.7800 H   0  0  0  0  0  0  0  0  0  0  0  0
  -16.4617   12.0501  -13.4439 H   0  0  0  0  0  0  0  0  0  0  0  0
  -16.7890   13.5522  -15.3474 H   0  0  0  0  0  0  0  0  0  0  0  0
  -13.9572   17.2204  -15.6472 H   0  0  0  0  0  0  0  0  0  0  0  0
  -13.1178   16.0565  -16.6392 H   0  0  0  0  0  0  0  0  0  0  0  0
  -12.9744   17.3613  -10.0841 H   0  0  0  0  0  0  0  0  0  0  0  0
  -12.0240   16.5080   -8.1940 H   0  0  0  0  0  0  0  0  0  0  0  0
   -6.4870   15.4221   -6.0365 H   0  0  0  0  0  0  0  0  0  0  0  0
   -7.6779   15.3056   -7.4007 H   0  0  0  0  0  0  0  0  0  0  0  0
   -7.3561   17.6559   -6.6605 H   0  0  0  0  0  0  0  0  0  0  0  0
   -9.0445   17.0740   -6.3853 H   0  0  0  0  0  0  0  0  0  0  0  0
  1  2  1  0
  2  3  1  0
  3  4  1  0
  4  5  1  0
  5  6  1  0
  6  7  1  0
  7  8  1  0
  8  9  1  0
  9 10  2  0
 10 11  1  0
 11 12  2  0
 12 13  1  0
 13 14  1  0
 14 15  1  0
 15 16  1  0
 16 17  1  0
 17 18  1  0
 18 19  1  0
 19 20  1  0
 13 21  2  0
 12 22  1  0
 22 23  1  0
 23 24  1  0
 24 25  2  0
 25 26  1  0
 25 27  1  0
 27 28  2  0
 28 29  1  0
 29 30  2  0
 30 31  1  0
 31 32  1  0
 32 33  1  0
 22 34  1  0
 34 35  2  0
 35 36  1  0
  5 37  1  0
 37 38  1  0
 38  2  1  0
 21  9  1  0
 30 24  1  0
 36 11  1  0
 20 15  1  0
 33 29  1  0
  1 39  1  0
  1 40  1  0
  1 41  1  0
  3 42  1  0
  3 43  1  0
  4 44  1  0
  4 45  1  0
  6 46  1  0
  6 47  1  0
  7 48  1  0
  7 49  1  0
 10 50  1  0
 15 51  1  0
 16 52  1  0
 16 53  1  0
 17 54  1  0
 17 55  1  0
 19 56  1  0
 19 57  1  0
 20 58  1  0
 20 59  1  0
 21 60  1  0
 22 61  1  0
 23 62  1  0
 27 63  1  0
 28 64  1  0
 32 65  1  0
 32 66  1  0
 35 67  1  0
 36 68  1  0
 37 69  1  0
 37 70  1  0
 38 71  1  0
 38 72  1  0
M  END
>  <meeko>  (4)
{"is_sidechain": false}

>  <source_group>  (4)
FYN canonical

>  <source_system>  (4)
FYN_saracatinib

>  <source_run>  (4)
vina_initial_seed20260824_ex16

>  <source_seed>  (4)
20260824

>  <vina_pose_rank>  (4)
4

>  <vina_affinity_kcal_mol>  (4)
-8.9559999999999995

>  <vina_rmsd_to_crystal_angstrom>  (4)
2.7764000000000002

$$$$
FYN_saracatinib__vina_initial_seed20260824_ex16__pose05
     RDKit          3D

 72 77  0  0  0  0  0  0  0  0999 V2000
   -7.2390    9.8580   -7.4260 C   0  0  0  0  0  0  0  0  0  0  0  0
   -7.4660   11.2810   -7.2380 N   0  0  0  0  0  0  0  0  0  0  0  0
   -8.7590   11.5040   -6.6150 C   0  0  0  0  0  0  0  0  0  0  0  0
   -9.0090   12.9940   -6.3410 C   0  0  0  0  0  0  0  0  0  0  0  0
   -7.9620   13.5910   -5.5180 N   0  0  0  0  0  0  0  0  0  0  0  0
   -8.2350   15.0160   -5.3600 C   0  0  0  0  0  0  0  0  0  0  0  0
   -8.4730   15.8110   -6.6550 C   0  0  0  0  0  0  0  0  0  0  0  0
   -9.7490   16.4030   -6.6950 O   0  0  0  0  0  0  0  0  0  0  0  0
  -10.5080   16.1150   -7.8030 C   0  0  0  0  0  0  0  0  0  0  0  0
  -11.6010   16.8130   -8.1310 C   0  0  0  0  0  0  0  0  0  0  0  0
  -12.3290   16.5070   -9.2140 C   0  0  0  0  0  0  0  0  0  0  0  0
  -12.0140   15.4720  -10.0430 C   0  0  0  0  0  0  0  0  0  0  0  0
  -10.9090   14.7430   -9.7250 C   0  0  0  0  0  0  0  0  0  0  0  0
  -10.4870   13.6830  -10.5060 O   0  0  0  0  0  0  0  0  0  0  0  0
  -10.1160   12.4370   -9.9680 C   0  0  0  0  0  0  0  0  0  0  0  0
  -11.3060   11.5910   -9.5130 C   0  0  0  0  0  0  0  0  0  0  0  0
  -10.8950   10.1410   -9.2840 C   0  0  0  0  0  0  0  0  0  0  0  0
  -10.3110    9.5970  -10.4430 O   0  0  0  0  0  0  0  0  0  0  0  0
   -9.1020   10.2470  -10.7300 C   0  0  0  0  0  0  0  0  0  0  0  0
   -9.3740   11.7020  -11.0960 C   0  0  0  0  0  0  0  0  0  0  0  0
  -10.2020   15.0950   -8.6260 C   0  0  0  0  0  0  0  0  0  0  0  0
  -12.8390   15.2740  -11.1110 C   0  0  0  0  0  0  0  0  0  0  0  0
  -12.8660   14.4230  -12.0690 N   0  0  0  0  0  0  0  0  0  0  0  0
  -13.6810   14.0490  -12.9830 C   0  0  0  0  0  0  0  0  0  0  0  0
  -14.4080   12.9070  -12.8220 C   0  0  0  0  0  0  0  0  0  0  0  0
  -14.3120   11.8840  -11.4170 Cl  0  0  0  0  0  0  0  0  0  0  0  0
  -15.2830   12.4950  -13.7600 C   0  0  0  0  0  0  0  0  0  0  0  0
  -15.4720   13.1820  -14.8950 C   0  0  0  0  0  0  0  0  0  0  0  0
  -14.7610   14.2990  -15.0680 C   0  0  0  0  0  0  0  0  0  0  0  0
  -13.8910   14.7180  -14.1400 C   0  0  0  0  0  0  0  0  0  0  0  0
  -13.3560   15.7640  -14.5160 O   0  0  0  0  0  0  0  0  0  0  0  0
  -13.8300   16.0730  -15.8260 C   0  0  0  0  0  0  0  0  0  0  0  0
  -14.7980   15.0520  -16.0400 O   0  0  0  0  0  0  0  0  0  0  0  0
  -13.8350   16.0620  -11.2430 N   0  0  0  0  0  0  0  0  0  0  0  0
  -14.0410   16.9910  -10.4150 C   0  0  0  0  0  0  0  0  0  0  0  0
  -13.3360   17.2520   -9.4060 N   0  0  0  0  0  0  0  0  0  0  0  0
   -6.6820   13.3610   -6.1720 C   0  0  0  0  0  0  0  0  0  0  0  0
   -6.4220   11.8620   -6.4130 C   0  0  0  0  0  0  0  0  0  0  0  0
   -7.1606    9.3665   -6.4451 H   0  0  0  0  0  0  0  0  0  0  0  0
   -8.0792    9.4237   -7.9876 H   0  0  0  0  0  0  0  0  0  0  0  0
   -6.3054    9.7067   -7.9876 H   0  0  0  0  0  0  0  0  0  0  0  0
   -9.5467   11.1277   -7.2843 H   0  0  0  0  0  0  0  0  0  0  0  0
   -8.7717   10.9719   -5.6524 H   0  0  0  0  0  0  0  0  0  0  0  0
   -9.0507   13.5279   -7.3019 H   0  0  0  0  0  0  0  0  0  0  0  0
   -9.9579   13.0796   -5.7912 H   0  0  0  0  0  0  0  0  0  0  0  0
   -9.1338   15.1178   -4.7340 H   0  0  0  0  0  0  0  0  0  0  0  0
   -7.3229   15.4424   -4.9170 H   0  0  0  0  0  0  0  0  0  0  0  0
   -7.7136   16.6035   -6.7274 H   0  0  0  0  0  0  0  0  0  0  0  0
   -8.4035   15.1074   -7.4977 H   0  0  0  0  0  0  0  0  0  0  0  0
  -11.9094   17.6576   -7.4973 H   0  0  0  0  0  0  0  0  0  0  0  0
   -9.5022   12.5970   -9.0693 H   0  0  0  0  0  0  0  0  0  0  0  0
  -11.7021   12.0044   -8.5738 H   0  0  0  0  0  0  0  0  0  0  0  0
  -12.0730   11.6157  -10.3011 H   0  0  0  0  0  0  0  0  0  0  0  0
  -10.1676   10.0984   -8.4599 H   0  0  0  0  0  0  0  0  0  0  0  0
  -11.7924    9.5560   -9.0341 H   0  0  0  0  0  0  0  0  0  0  0  0
   -8.4477   10.2085   -9.8466 H   0  0  0  0  0  0  0  0  0  0  0  0
   -8.6107    9.7446  -11.5763 H   0  0  0  0  0  0  0  0  0  0  0  0
   -8.4158   12.2087  -11.2831 H   0  0  0  0  0  0  0  0  0  0  0  0
  -10.0079   11.7193  -11.9948 H   0  0  0  0  0  0  0  0  0  0  0  0
   -9.3075   14.5011   -8.3867 H   0  0  0  0  0  0  0  0  0  0  0  0
  -12.2101   15.9399  -11.7202 H   0  0  0  0  0  0  0  0  0  0  0  0
  -11.9720   13.8680  -12.1320 H   0  0  0  0  0  0  0  0  0  0  0  0
  -15.8565   11.5718  -13.5900 H   0  0  0  0  0  0  0  0  0  0  0  0
  -16.1872   12.8381  -15.6568 H   0  0  0  0  0  0  0  0  0  0  0  0
  -14.2891   17.0721  -15.8594 H   0  0  0  0  0  0  0  0  0  0  0  0
  -13.0380   16.0996  -16.5889 H   0  0  0  0  0  0  0  0  0  0  0  0
  -14.9175   17.6319  -10.5912 H   0  0  0  0  0  0  0  0  0  0  0  0
  -13.5550   17.9960   -8.7980 H   0  0  0  0  0  0  0  0  0  0  0  0
   -6.6784   13.8829   -7.1403 H   0  0  0  0  0  0  0  0  0  0  0  0
   -5.8886   13.7433   -5.5129 H   0  0  0  0  0  0  0  0  0  0  0  0
   -5.4533   11.7415   -6.9201 H   0  0  0  0  0  0  0  0  0  0  0  0
   -6.4139   11.3461   -5.4415 H   0  0  0  0  0  0  0  0  0  0  0  0
  1  2  1  0
  2  3  1  0
  3  4  1  0
  4  5  1  0
  5  6  1  0
  6  7  1  0
  7  8  1  0
  8  9  1  0
  9 10  2  0
 10 11  1  0
 11 12  2  0
 12 13  1  0
 13 14  1  0
 14 15  1  0
 15 16  1  0
 16 17  1  0
 17 18  1  0
 18 19  1  0
 19 20  1  0
 13 21  2  0
 12 22  1  0
 22 23  1  0
 23 24  1  0
 24 25  2  0
 25 26  1  0
 25 27  1  0
 27 28  2  0
 28 29  1  0
 29 30  2  0
 30 31  1  0
 31 32  1  0
 32 33  1  0
 22 34  1  0
 34 35  2  0
 35 36  1  0
  5 37  1  0
 37 38  1  0
 38  2  1  0
 21  9  1  0
 30 24  1  0
 36 11  1  0
 20 15  1  0
 33 29  1  0
  1 39  1  0
  1 40  1  0
  1 41  1  0
  3 42  1  0
  3 43  1  0
  4 44  1  0
  4 45  1  0
  6 46  1  0
  6 47  1  0
  7 48  1  0
  7 49  1  0
 10 50  1  0
 15 51  1  0
 16 52  1  0
 16 53  1  0
 17 54  1  0
 17 55  1  0
 19 56  1  0
 19 57  1  0
 20 58  1  0
 20 59  1  0
 21 60  1  0
 22 61  1  0
 23 62  1  0
 27 63  1  0
 28 64  1  0
 32 65  1  0
 32 66  1  0
 35 67  1  0
 36 68  1  0
 37 69  1  0
 37 70  1  0
 38 71  1  0
 38 72  1  0
M  END
>  <meeko>  (5)
{"is_sidechain": false}

>  <source_group>  (5)
FYN canonical

>  <source_system>  (5)
FYN_saracatinib

>  <source_run>  (5)
vina_initial_seed20260824_ex16

>  <source_seed>  (5)
20260824

>  <vina_pose_rank>  (5)
5

>  <vina_affinity_kcal_mol>  (5)
-8.8279999999999994

>  <vina_rmsd_to_crystal_angstrom>  (5)
2.8915999999999999

$$$$
FYN_saracatinib__vina_initial_seed20260824_ex16__pose06
     RDKit          3D

 72 77  0  0  0  0  0  0  0  0999 V2000
   -6.7100   20.9280   -4.7700 C   0  0  0  0  0  0  0  0  0  0  0  0
   -7.2810   19.6240   -5.0620 N   0  0  0  0  0  0  0  0  0  0  0  0
   -6.2500   18.7200   -5.5410 C   0  0  0  0  0  0  0  0  0  0  0  0
   -6.8030   17.3120   -5.8000 C   0  0  0  0  0  0  0  0  0  0  0  0
   -7.4430   16.7390   -4.6190 N   0  0  0  0  0  0  0  0  0  0  0  0
   -8.0000   15.4360   -4.9650 C   0  0  0  0  0  0  0  0  0  0  0  0
   -8.6080   15.3060   -6.3720 C   0  0  0  0  0  0  0  0  0  0  0  0
   -9.7130   16.1570   -6.5600 O   0  0  0  0  0  0  0  0  0  0  0  0
  -10.4580   15.9280   -7.6910 C   0  0  0  0  0  0  0  0  0  0  0  0
  -11.5550   16.6340   -7.9890 C   0  0  0  0  0  0  0  0  0  0  0  0
  -12.2690   16.3850   -9.0960 C   0  0  0  0  0  0  0  0  0  0  0  0
  -11.9350   15.4060   -9.9810 C   0  0  0  0  0  0  0  0  0  0  0  0
  -10.8250   14.6700   -9.6960 C   0  0  0  0  0  0  0  0  0  0  0  0
  -10.3840   13.6630  -10.5350 O   0  0  0  0  0  0  0  0  0  0  0  0
  -10.2750   12.3210  -10.1260 C   0  0  0  0  0  0  0  0  0  0  0  0
  -11.3580   11.8950   -9.1340 C   0  0  0  0  0  0  0  0  0  0  0  0
  -11.4200   10.3770   -9.0060 C   0  0  0  0  0  0  0  0  0  0  0  0
  -11.6300    9.7770  -10.2610 O   0  0  0  0  0  0  0  0  0  0  0  0
  -10.5260    9.9970  -11.0970 C   0  0  0  0  0  0  0  0  0  0  0  0
  -10.4060   11.4850  -11.4100 C   0  0  0  0  0  0  0  0  0  0  0  0
  -10.1330   14.9620   -8.5710 C   0  0  0  0  0  0  0  0  0  0  0  0
  -12.7480   15.2640  -11.0680 C   0  0  0  0  0  0  0  0  0  0  0  0
  -12.7560   14.4720  -12.0760 N   0  0  0  0  0  0  0  0  0  0  0  0
  -13.5890   14.0740  -12.9630 C   0  0  0  0  0  0  0  0  0  0  0  0
  -14.2970   12.9260  -12.7650 C   0  0  0  0  0  0  0  0  0  0  0  0
  -14.1530   11.9260  -11.3480 Cl  0  0  0  0  0  0  0  0  0  0  0  0
  -15.1920   12.4890  -13.6730 C   0  0  0  0  0  0  0  0  0  0  0  0
  -15.4180   13.1550  -14.8140 C   0  0  0  0  0  0  0  0  0  0  0  0
  -14.7260   14.2780  -15.0220 C   0  0  0  0  0  0  0  0  0  0  0  0
  -13.8370   14.7220  -14.1240 C   0  0  0  0  0  0  0  0  0  0  0  0
  -13.3260   15.7680  -14.5290 O   0  0  0  0  0  0  0  0  0  0  0  0
  -13.8380   16.0510  -15.8310 C   0  0  0  0  0  0  0  0  0  0  0  0
  -14.7970   15.0150  -16.0040 O   0  0  0  0  0  0  0  0  0  0  0  0
  -13.7500   16.0490  -11.1630 N   0  0  0  0  0  0  0  0  0  0  0  0
  -13.9740   16.9240  -10.2830 C   0  0  0  0  0  0  0  0  0  0  0  0
  -13.2820   17.1310   -9.2530 N   0  0  0  0  0  0  0  0  0  0  0  0
   -8.4770   17.6610   -4.1710 C   0  0  0  0  0  0  0  0  0  0  0  0
   -7.9090   19.0630   -3.8790 C   0  0  0  0  0  0  0  0  0  0  0  0
   -6.6495   21.0661   -3.6804 H   0  0  0  0  0  0  0  0  0  0  0  0
   -5.7014   20.9922   -5.2043 H   0  0  0  0  0  0  0  0  0  0  0  0
   -7.3469   21.7127   -5.2043 H   0  0  0  0  0  0  0  0  0  0  0  0
   -5.8351   19.1178   -6.4789 H   0  0  0  0  0  0  0  0  0  0  0  0
   -5.4732   18.6453   -4.7658 H   0  0  0  0  0  0  0  0  0  0  0  0
   -7.5437   17.3672   -6.6114 H   0  0  0  0  0  0  0  0  0  0  0  0
   -5.9564   16.6638   -6.0703 H   0  0  0  0  0  0  0  0  0  0  0  0
   -7.1933   14.6932   -4.8787 H   0  0  0  0  0  0  0  0  0  0  0  0
   -8.8371   15.2808   -4.2685 H   0  0  0  0  0  0  0  0  0  0  0  0
   -7.8370   15.5590   -7.1147 H   0  0  0  0  0  0  0  0  0  0  0  0
   -8.9585   14.2702   -6.4914 H   0  0  0  0  0  0  0  0  0  0  0  0
  -11.8783   17.4369   -7.3102 H   0  0  0  0  0  0  0  0  0  0  0  0
   -9.3186   12.1766   -9.6022 H   0  0  0  0  0  0  0  0  0  0  0  0
  -11.1335   12.3296   -8.1487 H   0  0  0  0  0  0  0  0  0  0  0  0
  -12.3300   12.2541   -9.5031 H   0  0  0  0  0  0  0  0  0  0  0  0
  -10.4712   10.0116   -8.5861 H   0  0  0  0  0  0  0  0  0  0  0  0
  -12.2587   10.1133   -8.3449 H   0  0  0  0  0  0  0  0  0  0  0  0
   -9.6108    9.6548  -10.5917 H   0  0  0  0  0  0  0  0  0  0  0  0
  -10.6619    9.4376  -12.0343 H   0  0  0  0  0  0  0  0  0  0  0  0
   -9.5160   11.6483  -12.0354 H   0  0  0  0  0  0  0  0  0  0  0  0
  -11.3179   11.8019  -11.9373 H   0  0  0  0  0  0  0  0  0  0  0  0
   -9.2348   14.3637   -8.3585 H   0  0  0  0  0  0  0  0  0  0  0  0
  -12.1210   15.9723  -11.6295 H   0  0  0  0  0  0  0  0  0  0  0  0
  -11.8200   14.0120  -12.2270 H   0  0  0  0  0  0  0  0  0  0  0  0
  -15.7508   11.5629  -13.4727 H   0  0  0  0  0  0  0  0  0  0  0  0
  -16.1471   12.7898  -15.5523 H   0  0  0  0  0  0  0  0  0  0  0  0
  -14.3110   17.0434  -15.8673 H   0  0  0  0  0  0  0  0  0  0  0  0
  -13.0666   16.0763  -16.6148 H   0  0  0  0  0  0  0  0  0  0  0  0
  -14.8556   17.5653  -10.4295 H   0  0  0  0  0  0  0  0  0  0  0  0
  -13.5140   17.8350   -8.6030 H   0  0  0  0  0  0  0  0  0  0  0  0
   -9.2436   17.7441   -4.9555 H   0  0  0  0  0  0  0  0  0  0  0  0
   -8.9056   17.2656   -3.2382 H   0  0  0  0  0  0  0  0  0  0  0  0
   -8.7278   19.7237   -3.5582 H   0  0  0  0  0  0  0  0  0  0  0  0
   -7.1515   18.9773   -3.0860 H   0  0  0  0  0  0  0  0  0  0  0  0
  1  2  1  0
  2  3  1  0
  3  4  1  0
  4  5  1  0
  5  6  1  0
  6  7  1  0
  7  8  1  0
  8  9  1  0
  9 10  2  0
 10 11  1  0
 11 12  2  0
 12 13  1  0
 13 14  1  0
 14 15  1  0
 15 16  1  0
 16 17  1  0
 17 18  1  0
 18 19  1  0
 19 20  1  0
 13 21  2  0
 12 22  1  0
 22 23  1  0
 23 24  1  0
 24 25  2  0
 25 26  1  0
 25 27  1  0
 27 28  2  0
 28 29  1  0
 29 30  2  0
 30 31  1  0
 31 32  1  0
 32 33  1  0
 22 34  1  0
 34 35  2  0
 35 36  1  0
  5 37  1  0
 37 38  1  0
 38  2  1  0
 21  9  1  0
 30 24  1  0
 36 11  1  0
 20 15  1  0
 33 29  1  0
  1 39  1  0
  1 40  1  0
  1 41  1  0
  3 42  1  0
  3 43  1  0
  4 44  1  0
  4 45  1  0
  6 46  1  0
  6 47  1  0
  7 48  1  0
  7 49  1  0
 10 50  1  0
 15 51  1  0
 16 52  1  0
 16 53  1  0
 17 54  1  0
 17 55  1  0
 19 56  1  0
 19 57  1  0
 20 58  1  0
 20 59  1  0
 21 60  1  0
 22 61  1  0
 23 62  1  0
 27 63  1  0
 28 64  1  0
 32 65  1  0
 32 66  1  0
 35 67  1  0
 36 68  1  0
 37 69  1  0
 37 70  1  0
 38 71  1  0
 38 72  1  0
M  END
>  <meeko>  (6)
{"is_sidechain": false}

>  <source_group>  (6)
FYN canonical

>  <source_system>  (6)
FYN_saracatinib

>  <source_run>  (6)
vina_initial_seed20260824_ex16

>  <source_seed>  (6)
20260824

>  <vina_pose_rank>  (6)
6

>  <vina_affinity_kcal_mol>  (6)
-8.6799999999999997

>  <vina_rmsd_to_crystal_angstrom>  (6)
1.8712

$$$$
FYN_saracatinib__vina_initial_seed20260824_ex16__pose07
     RDKit          3D

 72 77  0  0  0  0  0  0  0  0999 V2000
  -17.6280   12.5660  -15.5370 C   0  0  0  0  0  0  0  0  0  0  0  0
  -16.4460   13.0170  -14.8230 N   0  0  0  0  0  0  0  0  0  0  0  0
  -15.5440   13.7040  -15.7300 C   0  0  0  0  0  0  0  0  0  0  0  0
  -14.3110   14.2530  -14.9990 C   0  0  0  0  0  0  0  0  0  0  0  0
  -14.6670   15.1430  -13.8980 N   0  0  0  0  0  0  0  0  0  0  0  0
  -13.4490   15.5660  -13.2150 C   0  0  0  0  0  0  0  0  0  0  0  0
  -13.2240   14.9920  -11.8060 C   0  0  0  0  0  0  0  0  0  0  0  0
  -13.2610   15.9850  -10.8090 O   0  0  0  0  0  0  0  0  0  0  0  0
  -12.2960   15.8920   -9.8360 C   0  0  0  0  0  0  0  0  0  0  0  0
  -12.0670   16.8690   -8.9510 C   0  0  0  0  0  0  0  0  0  0  0  0
  -11.1130   16.7570   -8.0150 C   0  0  0  0  0  0  0  0  0  0  0  0
  -10.3160   15.6570   -7.9070 C   0  0  0  0  0  0  0  0  0  0  0  0
  -10.5260   14.6530   -8.8020 C   0  0  0  0  0  0  0  0  0  0  0  0
   -9.7880   13.4840   -8.7710 O   0  0  0  0  0  0  0  0  0  0  0  0
   -9.8870   12.4920   -9.7640 C   0  0  0  0  0  0  0  0  0  0  0  0
   -8.6110   12.3270  -10.5910 C   0  0  0  0  0  0  0  0  0  0  0  0
   -8.6350   11.0260  -11.3860 C   0  0  0  0  0  0  0  0  0  0  0  0
   -8.8250    9.9220  -10.5360 O   0  0  0  0  0  0  0  0  0  0  0  0
  -10.0940    9.9760   -9.9420 C   0  0  0  0  0  0  0  0  0  0  0  0
  -10.1780   11.1820   -9.0130 C   0  0  0  0  0  0  0  0  0  0  0  0
  -11.5050   14.8090   -9.7230 C   0  0  0  0  0  0  0  0  0  0  0  0
   -9.3880   15.6740   -6.9060 C   0  0  0  0  0  0  0  0  0  0  0  0
   -8.4860   14.8520   -6.5160 N   0  0  0  0  0  0  0  0  0  0  0  0
   -7.7580   14.6640   -5.4790 C   0  0  0  0  0  0  0  0  0  0  0  0
   -6.4530   15.0580   -5.4840 C   0  0  0  0  0  0  0  0  0  0  0  0
   -5.6740   15.8260   -6.8380 Cl  0  0  0  0  0  0  0  0  0  0  0  0
   -5.6650   14.8880   -4.4040 C   0  0  0  0  0  0  0  0  0  0  0  0
   -6.1240   14.3160   -3.2830 C   0  0  0  0  0  0  0  0  0  0  0  0
   -7.4000   13.9200   -3.2670 C   0  0  0  0  0  0  0  0  0  0  0  0
   -8.1910   14.0880   -4.3350 C   0  0  0  0  0  0  0  0  0  0  0  0
   -9.3170   13.6500   -4.0890 O   0  0  0  0  0  0  0  0  0  0  0  0
   -9.3060   13.0730   -2.7830 C   0  0  0  0  0  0  0  0  0  0  0  0
   -7.9900   13.3770   -2.3350 O   0  0  0  0  0  0  0  0  0  0  0  0
   -9.3370   16.7120   -6.1650 N   0  0  0  0  0  0  0  0  0  0  0  0
  -10.1210   17.6830   -6.3520 C   0  0  0  0  0  0  0  0  0  0  0  0
  -11.0080   17.7560   -7.2420 N   0  0  0  0  0  0  0  0  0  0  0  0
  -15.5610   14.4230  -13.0030 C   0  0  0  0  0  0  0  0  0  0  0  0
  -16.8130   13.9060  -13.7360 C   0  0  0  0  0  0  0  0  0  0  0  0
  -18.4026   12.2705  -14.8140 H   0  0  0  0  0  0  0  0  0  0  0  0
  -18.0084   13.3822  -16.1688 H   0  0  0  0  0  0  0  0  0  0  0  0
  -17.3680   11.7039  -16.1688 H   0  0  0  0  0  0  0  0  0  0  0  0
  -15.2131   12.9980  -16.5059 H   0  0  0  0  0  0  0  0  0  0  0  0
  -16.0853   14.5528  -16.1733 H   0  0  0  0  0  0  0  0  0  0  0  0
  -13.7331   13.4077  -14.5971 H   0  0  0  0  0  0  0  0  0  0  0  0
  -13.7230   14.8350  -15.7239 H   0  0  0  0  0  0  0  0  0  0  0  0
  -12.5938   15.2675  -13.8391 H   0  0  0  0  0  0  0  0  0  0  0  0
  -13.5525   16.6523  -13.0763 H   0  0  0  0  0  0  0  0  0  0  0  0
  -14.0103   14.2519  -11.5965 H   0  0  0  0  0  0  0  0  0  0  0  0
  -12.2238   14.5346  -11.7864 H   0  0  0  0  0  0  0  0  0  0  0  0
  -12.6749   17.7848   -8.9920 H   0  0  0  0  0  0  0  0  0  0  0  0
  -10.6725   12.7717  -10.4814 H   0  0  0  0  0  0  0  0  0  0  0  0
   -8.5237   13.1727  -11.2890 H   0  0  0  0  0  0  0  0  0  0  0  0
   -7.7516   12.3008   -9.9049 H   0  0  0  0  0  0  0  0  0  0  0  0
   -9.4575   11.0647  -12.1154 H   0  0  0  0  0  0  0  0  0  0  0  0
   -7.6699   10.9110  -11.9011 H   0  0  0  0  0  0  0  0  0  0  0  0
  -10.8607   10.0646  -10.7258 H   0  0  0  0  0  0  0  0  0  0  0  0
  -10.2626    9.0573   -9.3610 H   0  0  0  0  0  0  0  0  0  0  0  0
  -11.1895   11.2330   -8.5837 H   0  0  0  0  0  0  0  0  0  0  0  0
   -9.4230   11.0621   -8.2220 H   0  0  0  0  0  0  0  0  0  0  0  0
  -11.6670   13.9863  -10.4350 H   0  0  0  0  0  0  0  0  0  0  0  0
  -10.1125   15.2015   -6.2264 H   0  0  0  0  0  0  0  0  0  0  0  0
   -8.2760   14.1180   -7.2430 H   0  0  0  0  0  0  0  0  0  0  0  0
   -4.6194   15.2272   -4.4440 H   0  0  0  0  0  0  0  0  0  0  0  0
   -5.4735   14.1773   -2.4068 H   0  0  0  0  0  0  0  0  0  0  0  0
  -10.0653   13.5358   -2.1354 H   0  0  0  0  0  0  0  0  0  0  0  0
   -9.5407   11.9984   -2.7715 H   0  0  0  0  0  0  0  0  0  0  0  0
  -10.0200   18.5443   -5.6753 H   0  0  0  0  0  0  0  0  0  0  0  0
  -11.5890   18.5460   -7.3330 H   0  0  0  0  0  0  0  0  0  0  0  0
  -15.0207   13.5662  -12.5742 H   0  0  0  0  0  0  0  0  0  0  0  0
  -15.8891   15.1186  -12.2166 H   0  0  0  0  0  0  0  0  0  0  0  0
  -17.4482   13.3600  -13.0229 H   0  0  0  0  0  0  0  0  0  0  0  0
  -17.3564   14.7664  -14.1536 H   0  0  0  0  0  0  0  0  0  0  0  0
  1  2  1  0
  2  3  1  0
  3  4  1  0
  4  5  1  0
  5  6  1  0
  6  7  1  0
  7  8  1  0
  8  9  1  0
  9 10  2  0
 10 11  1  0
 11 12  2  0
 12 13  1  0
 13 14  1  0
 14 15  1  0
 15 16  1  0
 16 17  1  0
 17 18  1  0
 18 19  1  0
 19 20  1  0
 13 21  2  0
 12 22  1  0
 22 23  1  0
 23 24  1  0
 24 25  2  0
 25 26  1  0
 25 27  1  0
 27 28  2  0
 28 29  1  0
 29 30  2  0
 30 31  1  0
 31 32  1  0
 32 33  1  0
 22 34  1  0
 34 35  2  0
 35 36  1  0
  5 37  1  0
 37 38  1  0
 38  2  1  0
 21  9  1  0
 30 24  1  0
 36 11  1  0
 20 15  1  0
 33 29  1  0
  1 39  1  0
  1 40  1  0
  1 41  1  0
  3 42  1  0
  3 43  1  0
  4 44  1  0
  4 45  1  0
  6 46  1  0
  6 47  1  0
  7 48  1  0
  7 49  1  0
 10 50  1  0
 15 51  1  0
 16 52  1  0
 16 53  1  0
 17 54  1  0
 17 55  1  0
 19 56  1  0
 19 57  1  0
 20 58  1  0
 20 59  1  0
 21 60  1  0
 22 61  1  0
 23 62  1  0
 27 63  1  0
 28 64  1  0
 32 65  1  0
 32 66  1  0
 35 67  1  0
 36 68  1  0
 37 69  1  0
 37 70  1  0
 38 71  1  0
 38 72  1  0
M  END
>  <meeko>  (7)
{"is_sidechain": false}

>  <source_group>  (7)
FYN canonical

>  <source_system>  (7)
FYN_saracatinib

>  <source_run>  (7)
vina_initial_seed20260824_ex16

>  <source_seed>  (7)
20260824

>  <vina_pose_rank>  (7)
7

>  <vina_affinity_kcal_mol>  (7)
-8.5879999999999992

>  <vina_rmsd_to_crystal_angstrom>  (7)
9.5510999999999999

$$$$
FYN_saracatinib__vina_initial_seed20260824_ex16__pose08
     RDKit          3D

 72 77  0  0  0  0  0  0  0  0999 V2000
   -7.8840   18.1380   -5.8090 C   0  0  0  0  0  0  0  0  0  0  0  0
   -8.0650   16.6970   -5.7990 N   0  0  0  0  0  0  0  0  0  0  0  0
   -9.0730   16.3110   -6.7700 C   0  0  0  0  0  0  0  0  0  0  0  0
   -9.2480   14.7870   -6.8350 C   0  0  0  0  0  0  0  0  0  0  0  0
   -7.9960   14.0960   -7.1320 N   0  0  0  0  0  0  0  0  0  0  0  0
   -8.2300   12.6560   -7.1090 C   0  0  0  0  0  0  0  0  0  0  0  0
   -8.5520   11.9970   -8.4600 C   0  0  0  0  0  0  0  0  0  0  0  0
   -9.6050   11.0670   -8.3670 O   0  0  0  0  0  0  0  0  0  0  0  0
  -10.6930   11.3130   -9.1690 C   0  0  0  0  0  0  0  0  0  0  0  0
  -11.6440   10.3990   -9.3950 C   0  0  0  0  0  0  0  0  0  0  0  0
  -12.6930   10.6610  -10.1890 C   0  0  0  0  0  0  0  0  0  0  0  0
  -12.8580   11.8590  -10.8170 C   0  0  0  0  0  0  0  0  0  0  0  0
  -11.8980   12.8020  -10.6060 C   0  0  0  0  0  0  0  0  0  0  0  0
  -11.9740   14.0580  -11.1790 O   0  0  0  0  0  0  0  0  0  0  0  0
  -11.9480   15.2450  -10.4230 C   0  0  0  0  0  0  0  0  0  0  0  0
  -12.9790   16.2800  -10.8760 C   0  0  0  0  0  0  0  0  0  0  0  0
  -13.1620   17.3710   -9.8260 C   0  0  0  0  0  0  0  0  0  0  0  0
  -13.5230   16.8160   -8.5850 O   0  0  0  0  0  0  0  0  0  0  0  0
  -12.4770   16.0340   -8.0770 C   0  0  0  0  0  0  0  0  0  0  0  0
  -12.2550   14.8230   -8.9770 C   0  0  0  0  0  0  0  0  0  0  0  0
  -10.8630   12.4940   -9.7920 C   0  0  0  0  0  0  0  0  0  0  0  0
  -13.9720   11.9920  -11.5920 C   0  0  0  0  0  0  0  0  0  0  0  0
  -14.4430   12.9370  -12.3190 N   0  0  0  0  0  0  0  0  0  0  0  0
  -14.8150   13.1040  -13.5330 C   0  0  0  0  0  0  0  0  0  0  0  0
  -13.8900   13.0990  -14.5350 C   0  0  0  0  0  0  0  0  0  0  0  0
  -12.1830   12.8720  -14.2810 Cl  0  0  0  0  0  0  0  0  0  0  0  0
  -14.2510   13.2590  -15.8230 C   0  0  0  0  0  0  0  0  0  0  0  0
  -15.5310   13.4390  -16.1770 C   0  0  0  0  0  0  0  0  0  0  0  0
  -16.4460   13.4520  -15.2040 C   0  0  0  0  0  0  0  0  0  0  0  0
  -16.0970   13.2920  -13.9210 C   0  0  0  0  0  0  0  0  0  0  0  0
  -17.1020   13.3390  -13.2090 O   0  0  0  0  0  0  0  0  0  0  0  0
  -18.2320   13.6170  -14.0350 C   0  0  0  0  0  0  0  0  0  0  0  0
  -17.6590   13.6070  -15.3370 O   0  0  0  0  0  0  0  0  0  0  0  0
  -14.7600   10.9900  -11.6720 N   0  0  0  0  0  0  0  0  0  0  0  0
  -14.5130    9.9200  -11.0510 C   0  0  0  0  0  0  0  0  0  0  0  0
  -13.5170    9.7060  -10.3120 N   0  0  0  0  0  0  0  0  0  0  0  0
   -7.0110   14.4940   -6.1370 C   0  0  0  0  0  0  0  0  0  0  0  0
   -6.8160   16.0220   -6.1010 C   0  0  0  0  0  0  0  0  0  0  0  0
   -7.8374   18.5089   -4.7745 H   0  0  0  0  0  0  0  0  0  0  0  0
   -6.9476   18.3863   -6.3301 H   0  0  0  0  0  0  0  0  0  0  0  0
   -8.7299   18.6102   -6.3301 H   0  0  0  0  0  0  0  0  0  0  0  0
  -10.0329   16.7679   -6.4875 H   0  0  0  0  0  0  0  0  0  0  0  0
   -8.7452   16.6601   -7.7603 H   0  0  0  0  0  0  0  0  0  0  0  0
   -9.6255   14.4329   -5.8644 H   0  0  0  0  0  0  0  0  0  0  0  0
   -9.9553   14.5645   -7.6475 H   0  0  0  0  0  0  0  0  0  0  0  0
   -7.3249   12.1757   -6.7090 H   0  0  0  0  0  0  0  0  0  0  0  0
   -9.1295   12.5147   -6.4918 H   0  0  0  0  0  0  0  0  0  0  0  0
   -8.8361   12.7816   -9.1768 H   0  0  0  0  0  0  0  0  0  0  0  0
   -7.6540   11.4544   -8.7906 H   0  0  0  0  0  0  0  0  0  0  0  0
  -11.5637    9.4106   -8.9190 H   0  0  0  0  0  0  0  0  0  0  0  0
  -10.9676   15.7297  -10.5409 H   0  0  0  0  0  0  0  0  0  0  0  0
  -12.6376   16.7395  -11.8153 H   0  0  0  0  0  0  0  0  0  0  0  0
  -13.9432   15.7710  -11.0217 H   0  0  0  0  0  0  0  0  0  0  0  0
  -12.2179   17.9240   -9.7125 H   0  0  0  0  0  0  0  0  0  0  0  0
  -13.9648   18.0465  -10.1564 H   0  0  0  0  0  0  0  0  0  0  0  0
  -11.5564   16.6350   -8.0393 H   0  0  0  0  0  0  0  0  0  0  0  0
  -12.7372   15.6919   -7.0644 H   0  0  0  0  0  0  0  0  0  0  0  0
  -11.4083   14.2386   -8.5877 H   0  0  0  0  0  0  0  0  0  0  0  0
  -13.1764   14.2221   -8.9809 H   0  0  0  0  0  0  0  0  0  0  0  0
  -10.1004   13.2692   -9.6260 H   0  0  0  0  0  0  0  0  0  0  0  0
  -14.5279   12.3810  -10.7262 H   0  0  0  0  0  0  0  0  0  0  0  0
  -14.5620   13.8330  -11.7770 H   0  0  0  0  0  0  0  0  0  0  0  0
  -13.4760   13.2415  -16.6034 H   0  0  0  0  0  0  0  0  0  0  0  0
  -15.8177   13.5712  -17.2307 H   0  0  0  0  0  0  0  0  0  0  0  0
  -19.0029   12.8391  -13.9320 H   0  0  0  0  0  0  0  0  0  0  0  0
  -18.7432   14.5580  -13.7836 H   0  0  0  0  0  0  0  0  0  0  0  0
  -15.2349    9.0981  -11.1661 H   0  0  0  0  0  0  0  0  0  0  0  0
  -13.3850    8.8440   -9.8550 H   0  0  0  0  0  0  0  0  0  0  0  0
   -7.3490   14.1552   -5.1466 H   0  0  0  0  0  0  0  0  0  0  0  0
   -6.0489   14.0337   -6.4065 H   0  0  0  0  0  0  0  0  0  0  0  0
   -6.0752   16.2723   -5.3273 H   0  0  0  0  0  0  0  0  0  0  0  0
   -6.4669   16.3549   -7.0896 H   0  0  0  0  0  0  0  0  0  0  0  0
  1  2  1  0
  2  3  1  0
  3  4  1  0
  4  5  1  0
  5  6  1  0
  6  7  1  0
  7  8  1  0
  8  9  1  0
  9 10  2  0
 10 11  1  0
 11 12  2  0
 12 13  1  0
 13 14  1  0
 14 15  1  0
 15 16  1  0
 16 17  1  0
 17 18  1  0
 18 19  1  0
 19 20  1  0
 13 21  2  0
 12 22  1  0
 22 23  1  0
 23 24  1  0
 24 25  2  0
 25 26  1  0
 25 27  1  0
 27 28  2  0
 28 29  1  0
 29 30  2  0
 30 31  1  0
 31 32  1  0
 32 33  1  0
 22 34  1  0
 34 35  2  0
 35 36  1  0
  5 37  1  0
 37 38  1  0
 38  2  1  0
 21  9  1  0
 30 24  1  0
 36 11  1  0
 20 15  1  0
 33 29  1  0
  1 39  1  0
  1 40  1  0
  1 41  1  0
  3 42  1  0
  3 43  1  0
  4 44  1  0
  4 45  1  0
  6 46  1  0
  6 47  1  0
  7 48  1  0
  7 49  1  0
 10 50  1  0
 15 51  1  0
 16 52  1  0
 16 53  1  0
 17 54  1  0
 17 55  1  0
 19 56  1  0
 19 57  1  0
 20 58  1  0
 20 59  1  0
 21 60  1  0
 22 61  1  0
 23 62  1  0
 27 63  1  0
 28 64  1  0
 32 65  1  0
 32 66  1  0
 35 67  1  0
 36 68  1  0
 37 69  1  0
 37 70  1  0
 38 71  1  0
 38 72  1  0
M  END
>  <meeko>  (8)
{"is_sidechain": false}

>  <source_group>  (8)
FYN canonical

>  <source_system>  (8)
FYN_saracatinib

>  <source_run>  (8)
vina_initial_seed20260824_ex16

>  <source_seed>  (8)
20260824

>  <vina_pose_rank>  (8)
8

>  <vina_affinity_kcal_mol>  (8)
-8.4830000000000005

>  <vina_rmsd_to_crystal_angstrom>  (8)
4.8002000000000002

$$$$
FYN_saracatinib__vina_initial_seed20260824_ex16__pose09
     RDKit          3D

 72 77  0  0  0  0  0  0  0  0999 V2000
  -17.4140   12.6040  -15.8210 C   0  0  0  0  0  0  0  0  0  0  0  0
  -16.2730   13.0510  -15.0420 N   0  0  0  0  0  0  0  0  0  0  0  0
  -15.4200   13.9080  -15.8470 C   0  0  0  0  0  0  0  0  0  0  0  0
  -14.2340   14.4530  -15.0380 C   0  0  0  0  0  0  0  0  0  0  0  0
  -14.6620   15.1760  -13.8440 N   0  0  0  0  0  0  0  0  0  0  0  0
  -13.4830   15.6020  -13.0970 C   0  0  0  0  0  0  0  0  0  0  0  0
  -13.2650   14.9340  -11.7290 C   0  0  0  0  0  0  0  0  0  0  0  0
  -13.2730   15.8630  -10.6710 O   0  0  0  0  0  0  0  0  0  0  0  0
  -12.2280   15.7700   -9.7850 C   0  0  0  0  0  0  0  0  0  0  0  0
  -12.0350   16.6560   -8.8010 C   0  0  0  0  0  0  0  0  0  0  0  0
  -11.0020   16.5470   -7.9530 C   0  0  0  0  0  0  0  0  0  0  0  0
  -10.0850   15.5430   -8.0380 C   0  0  0  0  0  0  0  0  0  0  0  0
  -10.2570   14.6330   -9.0360 C   0  0  0  0  0  0  0  0  0  0  0  0
   -9.3980   13.5630   -9.2030 O   0  0  0  0  0  0  0  0  0  0  0  0
   -9.8430   12.2680   -9.5250 C   0  0  0  0  0  0  0  0  0  0  0  0
   -8.8490   11.4750  -10.3740 C   0  0  0  0  0  0  0  0  0  0  0  0
   -9.1990    9.9910  -10.3890 C   0  0  0  0  0  0  0  0  0  0  0  0
   -9.2580    9.4770   -9.0800 O   0  0  0  0  0  0  0  0  0  0  0  0
  -10.3160   10.0650   -8.3730 C   0  0  0  0  0  0  0  0  0  0  0  0
  -10.0440   11.5530   -8.1790 C   0  0  0  0  0  0  0  0  0  0  0  0
  -11.3190   14.7810   -9.8620 C   0  0  0  0  0  0  0  0  0  0  0  0
   -9.0860   15.5510   -7.1080 C   0  0  0  0  0  0  0  0  0  0  0  0
   -8.0720   14.7990   -6.8850 N   0  0  0  0  0  0  0  0  0  0  0  0
   -7.2160   14.6130   -5.9520 C   0  0  0  0  0  0  0  0  0  0  0  0
   -7.5210   13.7990   -4.9010 C   0  0  0  0  0  0  0  0  0  0  0  0
   -9.0370   12.9620   -4.7270 Cl  0  0  0  0  0  0  0  0  0  0  0  0
   -6.6360   13.5720   -3.9110 C   0  0  0  0  0  0  0  0  0  0  0  0
   -5.4230   14.1420   -3.9080 C   0  0  0  0  0  0  0  0  0  0  0  0
   -5.1140   14.9460   -4.9290 C   0  0  0  0  0  0  0  0  0  0  0  0
   -5.9860   15.1750   -5.9190 C   0  0  0  0  0  0  0  0  0  0  0  0
   -5.4840   15.9430   -6.7430 O   0  0  0  0  0  0  0  0  0  0  0  0
   -4.1960   16.3360   -6.2730 C   0  0  0  0  0  0  0  0  0  0  0  0
   -4.0580   15.5550   -5.0930 O   0  0  0  0  0  0  0  0  0  0  0  0
   -9.0870   16.4930   -6.2470 N   0  0  0  0  0  0  0  0  0  0  0  0
   -9.9840   17.3800   -6.2570 C   0  0  0  0  0  0  0  0  0  0  0  0
  -10.9420   17.4530   -7.0690 N   0  0  0  0  0  0  0  0  0  0  0  0
  -15.5040   14.2900  -13.0540 C   0  0  0  0  0  0  0  0  0  0  0  0
  -16.7100   13.7740  -13.8610 C   0  0  0  0  0  0  0  0  0  0  0  0
  -18.2201   12.2882  -15.1425 H   0  0  0  0  0  0  0  0  0  0  0  0
  -17.7707   13.4289  -16.4553 H   0  0  0  0  0  0  0  0  0  0  0  0
  -17.1155   11.7563  -16.4553 H   0  0  0  0  0  0  0  0  0  0  0  0
  -15.0340   13.3279  -16.6982 H   0  0  0  0  0  0  0  0  0  0  0  0
  -16.0209   14.7626  -16.1913 H   0  0  0  0  0  0  0  0  0  0  0  0
  -13.5977   13.6096  -14.7316 H   0  0  0  0  0  0  0  0  0  0  0  0
  -13.6855   15.1584  -15.6795 H   0  0  0  0  0  0  0  0  0  0  0  0
  -12.5992   15.3917  -13.7173 H   0  0  0  0  0  0  0  0  0  0  0  0
  -13.6426   16.6686  -12.8805 H   0  0  0  0  0  0  0  0  0  0  0  0
  -14.0680   14.2011  -11.5617 H   0  0  0  0  0  0  0  0  0  0  0  0
  -12.2764   14.4519  -11.7447 H   0  0  0  0  0  0  0  0  0  0  0  0
  -12.7397   17.4927   -8.6851 H   0  0  0  0  0  0  0  0  0  0  0  0
  -10.7605   12.3373  -10.1279 H   0  0  0  0  0  0  0  0  0  0  0  0
   -8.8704   11.8593  -11.4045 H   0  0  0  0  0  0  0  0  0  0  0  0
   -7.8462   11.5924   -9.9375 H   0  0  0  0  0  0  0  0  0  0  0  0
  -10.1773    9.8563  -10.8735 H   0  0  0  0  0  0  0  0  0  0  0  0
   -8.4183    9.4507  -10.9445 H   0  0  0  0  0  0  0  0  0  0  0  0
  -11.2502    9.9353   -8.9391 H   0  0  0  0  0  0  0  0  0  0  0  0
  -10.4085    9.5815   -7.3893 H   0  0  0  0  0  0  0  0  0  0  0  0
  -10.8986   12.0077   -7.6566 H   0  0  0  0  0  0  0  0  0  0  0  0
   -9.1221   11.6618   -7.5888 H   0  0  0  0  0  0  0  0  0  0  0  0
  -11.4492   14.0340  -10.6589 H   0  0  0  0  0  0  0  0  0  0  0  0
   -9.6982   14.9221   -6.4449 H   0  0  0  0  0  0  0  0  0  0  0  0
   -7.8790   14.1450   -7.6890 H   0  0  0  0  0  0  0  0  0  0  0  0
   -6.9159   12.9022   -3.0846 H   0  0  0  0  0  0  0  0  0  0  0  0
   -4.7075   13.9544   -3.0939 H   0  0  0  0  0  0  0  0  0  0  0  0
   -3.4125   16.0936   -7.0060 H   0  0  0  0  0  0  0  0  0  0  0  0
   -4.0990   17.4182   -6.1012 H   0  0  0  0  0  0  0  0  0  0  0  0
   -9.9228   18.1611   -5.4849 H   0  0  0  0  0  0  0  0  0  0  0  0
  -11.6100   18.1760   -7.0200 H   0  0  0  0  0  0  0  0  0  0  0  0
  -14.9033   13.4300  -12.7230 H   0  0  0  0  0  0  0  0  0  0  0  0
  -15.8872   14.8600  -12.1948 H   0  0  0  0  0  0  0  0  0  0  0  0
  -17.3061   13.1011  -13.2270 H   0  0  0  0  0  0  0  0  0  0  0  0
  -17.3135   14.6363  -14.1805 H   0  0  0  0  0  0  0  0  0  0  0  0
  1  2  1  0
  2  3  1  0
  3  4  1  0
  4  5  1  0
  5  6  1  0
  6  7  1  0
  7  8  1  0
  8  9  1  0
  9 10  2  0
 10 11  1  0
 11 12  2  0
 12 13  1  0
 13 14  1  0
 14 15  1  0
 15 16  1  0
 16 17  1  0
 17 18  1  0
 18 19  1  0
 19 20  1  0
 13 21  2  0
 12 22  1  0
 22 23  1  0
 23 24  1  0
 24 25  2  0
 25 26  1  0
 25 27  1  0
 27 28  2  0
 28 29  1  0
 29 30  2  0
 30 31  1  0
 31 32  1  0
 32 33  1  0
 22 34  1  0
 34 35  2  0
 35 36  1  0
  5 37  1  0
 37 38  1  0
 38  2  1  0
 21  9  1  0
 30 24  1  0
 36 11  1  0
 20 15  1  0
 33 29  1  0
  1 39  1  0
  1 40  1  0
  1 41  1  0
  3 42  1  0
  3 43  1  0
  4 44  1  0
  4 45  1  0
  6 46  1  0
  6 47  1  0
  7 48  1  0
  7 49  1  0
 10 50  1  0
 15 51  1  0
 16 52  1  0
 16 53  1  0
 17 54  1  0
 17 55  1  0
 19 56  1  0
 19 57  1  0
 20 58  1  0
 20 59  1  0
 21 60  1  0
 22 61  1  0
 23 62  1  0
 27 63  1  0
 28 64  1  0
 32 65  1  0
 32 66  1  0
 35 67  1  0
 36 68  1  0
 37 69  1  0
 37 70  1  0
 38 71  1  0
 38 72  1  0
M  END
>  <meeko>  (9)
{"is_sidechain": false}

>  <source_group>  (9)
FYN canonical

>  <source_system>  (9)
FYN_saracatinib

>  <source_run>  (9)
vina_initial_seed20260824_ex16

>  <source_seed>  (9)
20260824

>  <vina_pose_rank>  (9)
9

>  <vina_affinity_kcal_mol>  (9)
-8.3859999999999992

>  <vina_rmsd_to_crystal_angstrom>  (9)
9.4322999999999997

$$$$
FYN_saracatinib__vina_initial_seed20260824_ex16__pose10
     RDKit          3D

 72 77  0  0  0  0  0  0  0  0999 V2000
   -6.5500   19.8330   -5.0770 C   0  0  0  0  0  0  0  0  0  0  0  0
   -6.8470   18.4110   -5.1150 N   0  0  0  0  0  0  0  0  0  0  0  0
   -8.1110   18.1820   -5.7920 C   0  0  0  0  0  0  0  0  0  0  0  0
   -8.4300   16.6840   -5.9100 C   0  0  0  0  0  0  0  0  0  0  0  0
   -7.3720   15.9420   -6.5890 N   0  0  0  0  0  0  0  0  0  0  0  0
   -7.7170   14.5250   -6.6000 C   0  0  0  0  0  0  0  0  0  0  0  0
   -8.9430   14.1160   -5.7670 C   0  0  0  0  0  0  0  0  0  0  0  0
   -9.7550   13.1780   -6.4320 O   0  0  0  0  0  0  0  0  0  0  0  0
  -10.3790   13.6270   -7.5700 C   0  0  0  0  0  0  0  0  0  0  0  0
  -11.1550   14.7170   -7.5860 C   0  0  0  0  0  0  0  0  0  0  0  0
  -11.7600   15.1300   -8.7090 C   0  0  0  0  0  0  0  0  0  0  0  0
  -11.6330   14.4740   -9.8970 C   0  0  0  0  0  0  0  0  0  0  0  0
  -10.8530   13.3570   -9.9030 C   0  0  0  0  0  0  0  0  0  0  0  0
  -10.6390   12.6250  -11.0560 O   0  0  0  0  0  0  0  0  0  0  0  0
  -10.4700   11.2280  -11.0540 C   0  0  0  0  0  0  0  0  0  0  0  0
  -11.3520   10.5080  -10.0330 C   0  0  0  0  0  0  0  0  0  0  0  0
  -11.4060    9.0100  -10.3120 C   0  0  0  0  0  0  0  0  0  0  0  0
  -11.8540    8.7610  -11.6220 O   0  0  0  0  0  0  0  0  0  0  0  0
  -10.9240    9.2420  -12.5550 C   0  0  0  0  0  0  0  0  0  0  0  0
  -10.8490   10.7630  -12.4700 C   0  0  0  0  0  0  0  0  0  0  0  0
  -10.2580   12.9840   -8.7470 C   0  0  0  0  0  0  0  0  0  0  0  0
  -12.2990   15.0060  -10.9610 C   0  0  0  0  0  0  0  0  0  0  0  0
  -12.4210   14.6720  -12.1930 N   0  0  0  0  0  0  0  0  0  0  0  0
  -13.2420   14.0100  -12.9190 C   0  0  0  0  0  0  0  0  0  0  0  0
  -13.5350   14.4410  -14.1790 C   0  0  0  0  0  0  0  0  0  0  0  0
  -12.8520   15.8690  -14.9020 Cl  0  0  0  0  0  0  0  0  0  0  0  0
  -14.3840   13.7590  -14.9730 C   0  0  0  0  0  0  0  0  0  0  0  0
  -14.9850   12.6350  -14.5580 C   0  0  0  0  0  0  0  0  0  0  0  0
  -14.7110   12.2060  -13.3230 C   0  0  0  0  0  0  0  0  0  0  0  0
  -13.8660   12.8760  -12.5280 C   0  0  0  0  0  0  0  0  0  0  0  0
  -13.7700   12.2950  -11.4450 O   0  0  0  0  0  0  0  0  0  0  0  0
  -14.6540   11.1760  -11.4470 C   0  0  0  0  0  0  0  0  0  0  0  0
  -15.1670   11.2050  -12.7740 O   0  0  0  0  0  0  0  0  0  0  0  0
  -12.9880   16.0620  -10.7600 N   0  0  0  0  0  0  0  0  0  0  0  0
  -13.0430   16.5920   -9.6160 C   0  0  0  0  0  0  0  0  0  0  0  0
  -12.4620   16.1770   -8.5800 N   0  0  0  0  0  0  0  0  0  0  0  0
   -6.1220   16.1830   -5.8820 C   0  0  0  0  0  0  0  0  0  0  0  0
   -5.7910   17.6860   -5.7980 C   0  0  0  0  0  0  0  0  0  0  0  0
   -6.4806   20.1652   -4.0307 H   0  0  0  0  0  0  0  0  0  0  0  0
   -5.5931   20.0214   -5.5858 H   0  0  0  0  0  0  0  0  0  0  0  0
   -7.3515   20.3887   -5.5858 H   0  0  0  0  0  0  0  0  0  0  0  0
   -8.9140   18.6736   -5.2233 H   0  0  0  0  0  0  0  0  0  0  0  0
   -8.0357   18.5973   -6.8078 H   0  0  0  0  0  0  0  0  0  0  0  0
   -8.5595   16.2696   -4.8993 H   0  0  0  0  0  0  0  0  0  0  0  0
   -9.3479   16.5824   -6.5077 H   0  0  0  0  0  0  0  0  0  0  0  0
   -7.9089   14.2349   -7.6435 H   0  0  0  0  0  0  0  0  0  0  0  0
   -6.8623   14.0114   -6.1357 H   0  0  0  0  0  0  0  0  0  0  0  0
   -8.5961   13.6750   -4.8209 H   0  0  0  0  0  0  0  0  0  0  0  0
   -9.5468   15.0189   -5.5934 H   0  0  0  0  0  0  0  0  0  0  0  0
  -11.2999   15.2873   -6.6566 H   0  0  0  0  0  0  0  0  0  0  0  0
   -9.4338   10.9868  -10.7744 H   0  0  0  0  0  0  0  0  0  0  0  0
  -10.9414   10.6710   -9.0256 H   0  0  0  0  0  0  0  0  0  0  0  0
  -12.3720   10.9134  -10.1057 H   0  0  0  0  0  0  0  0  0  0  0  0
  -10.3996    8.5837  -10.1881 H   0  0  0  0  0  0  0  0  0  0  0  0
  -12.1089    8.5451   -9.6050 H   0  0  0  0  0  0  0  0  0  0  0  0
   -9.9340    8.8145  -12.3379 H   0  0  0  0  0  0  0  0  0  0  0  0
  -11.2393    8.9492  -13.5673 H   0  0  0  0  0  0  0  0  0  0  0  0
  -10.0906   11.1241  -13.1802 H   0  0  0  0  0  0  0  0  0  0  0  0
  -11.8400   11.1726  -12.7152 H   0  0  0  0  0  0  0  0  0  0  0  0
   -9.6254   12.0844   -8.7701 H   0  0  0  0  0  0  0  0  0  0  0  0
  -11.4148   15.6102  -11.2124 H   0  0  0  0  0  0  0  0  0  0  0  0
  -11.6290   15.0380  -12.7830 H   0  0  0  0  0  0  0  0  0  0  0  0
  -14.5888   14.1340  -15.9866 H   0  0  0  0  0  0  0  0  0  0  0  0
  -15.6790   12.0856  -15.2111 H   0  0  0  0  0  0  0  0  0  0  0  0
  -14.1129   10.2391  -11.2483 H   0  0  0  0  0  0  0  0  0  0  0  0
  -15.4315   11.2243  -10.6703 H   0  0  0  0  0  0  0  0  0  0  0  0
  -13.6552   17.5003   -9.5153 H   0  0  0  0  0  0  0  0  0  0  0  0
  -12.5480   16.6410   -7.7150 H   0  0  0  0  0  0  0  0  0  0  0  0
   -6.2066   15.7797   -4.8621 H   0  0  0  0  0  0  0  0  0  0  0  0
   -5.3137   15.6860   -6.4385 H   0  0  0  0  0  0  0  0  0  0  0  0
   -4.8487   17.8171   -5.2459 H   0  0  0  0  0  0  0  0  0  0  0  0
   -5.6958   18.0828   -6.8195 H   0  0  0  0  0  0  0  0  0  0  0  0
  1  2  1  0
  2  3  1  0
  3  4  1  0
  4  5  1  0
  5  6  1  0
  6  7  1  0
  7  8  1  0
  8  9  1  0
  9 10  2  0
 10 11  1  0
 11 12  2  0
 12 13  1  0
 13 14  1  0
 14 15  1  0
 15 16  1  0
 16 17  1  0
 17 18  1  0
 18 19  1  0
 19 20  1  0
 13 21  2  0
 12 22  1  0
 22 23  1  0
 23 24  1  0
 24 25  2  0
 25 26  1  0
 25 27  1  0
 27 28  2  0
 28 29  1  0
 29 30  2  0
 30 31  1  0
 31 32  1  0
 32 33  1  0
 22 34  1  0
 34 35  2  0
 35 36  1  0
  5 37  1  0
 37 38  1  0
 38  2  1  0
 21  9  1  0
 30 24  1  0
 36 11  1  0
 20 15  1  0
 33 29  1  0
  1 39  1  0
  1 40  1  0
  1 41  1  0
  3 42  1  0
  3 43  1  0
  4 44  1  0
  4 45  1  0
  6 46  1  0
  6 47  1  0
  7 48  1  0
  7 49  1  0
 10 50  1  0
 15 51  1  0
 16 52  1  0
 16 53  1  0
 17 54  1  0
 17 55  1  0
 19 56  1  0
 19 57  1  0
 20 58  1  0
 20 59  1  0
 21 60  1  0
 22 61  1  0
 23 62  1  0
 27 63  1  0
 28 64  1  0
 32 65  1  0
 32 66  1  0
 35 67  1  0
 36 68  1  0
 37 69  1  0
 37 70  1  0
 38 71  1  0
 38 72  1  0
M  END
>  <meeko>  (10)
{"is_sidechain": false}

>  <source_group>  (10)
FYN canonical

>  <source_system>  (10)
FYN_saracatinib

>  <source_run>  (10)
vina_initial_seed20260824_ex16

>  <source_seed>  (10)
20260824

>  <vina_pose_rank>  (10)
10

>  <vina_affinity_kcal_mol>  (10)
-8.2430000000000003

>  <vina_rmsd_to_crystal_angstrom>  (10)
3.2069999999999999

$$$$
