FYN_saracatinib__vina_initial_seed20260824_ex16__pose01


 40 45  0  0  0  0  0  0  0  0999 V2000
   -9.9350   15.8740   -7.4730 C   0  0  0  0  0  0  0  0  0  0  0  0
  -11.0220   16.6150   -7.7150 C   0  0  0  0  0  0  0  0  0  0  0  0
  -11.8080   16.3810   -8.7760 C   0  0  0  0  0  0  0  0  0  0  0  0
  -11.5610   15.3810   -9.6670 C   0  0  0  0  0  0  0  0  0  0  0  0
  -10.4630   14.6080   -9.4370 C   0  0  0  0  0  0  0  0  0  0  0  0
   -9.6970   14.8870   -8.3580 C   0  0  0  0  0  0  0  0  0  0  0  0
  -12.4390   15.2580  -10.7030 C   0  0  0  0  0  0  0  0  0  0  0  0
  -13.4180   16.0770  -10.7500 N   0  0  0  0  0  0  0  0  0  0  0  0
  -13.5590   16.9690   -9.8690 C   0  0  0  0  0  0  0  0  0  0  0  0
  -12.8010   17.1610   -8.8830 N   0  0  0  0  0  0  0  0  0  0  0  0
  -12.9700   17.8790   -8.2300 H   0  0  0  0  0  0  0  0  0  0  0  0
  -12.5340   14.4550  -11.6990 N   0  0  0  0  0  0  0  0  0  0  0  0
  -11.6400   13.9230  -11.8660 H   0  0  0  0  0  0  0  0  0  0  0  0
  -13.4180   14.1120  -12.5590 C   0  0  0  0  0  0  0  0  0  0  0  0
  -14.1710   12.9950  -12.3530 C   0  0  0  0  0  0  0  0  0  0  0  0
  -14.0210   11.9650  -10.9580 Cl  0  0  0  0  0  0  0  0  0  0  0  0
  -15.1190   12.6160  -13.2330 C   0  0  0  0  0  0  0  0  0  0  0  0
  -15.3560   13.3120  -14.3530 C   0  0  0  0  0  0  0  0  0  0  0  0
  -14.6210   14.4050  -14.5700 C   0  0  0  0  0  0  0  0  0  0  0  0
  -13.6790   14.7910  -13.7000 C   0  0  0  0  0  0  0  0  0  0  0  0
  -13.1350   15.8190  -14.1080 O   0  0  0  0  0  0  0  0  0  0  0  0
  -13.6810   16.1490  -15.3840 C   0  0  0  0  0  0  0  0  0  0  0  0
  -14.6940   15.1610  -15.5380 O   0  0  0  0  0  0  0  0  0  0  0  0
   -9.1180   16.0870   -6.3900 O   0  0  0  0  0  0  0  0  0  0  0  0
   -7.8450   15.4890   -6.4550 C   0  0  0  0  0  0  0  0  0  0  0  0
   -7.1330   15.4750   -5.0910 C   0  0  0  0  0  0  0  0  0  0  0  0
   -9.2740   13.7220   -0.1720 C   0  0  0  0  0  0  0  0  0  0  0  0
   -8.4340   13.9950   -1.3250 N   0  0  0  0  0  0  0  0  0  0  0  0
   -9.0670   13.4990   -2.5350 C   0  0  0  0  0  0  0  0  0  0  0  0
   -8.2380   13.8250   -3.7860 C   0  0  0  0  0  0  0  0  0  0  0  0
   -7.9780   15.2550   -3.9230 N   0  0  0  0  0  0  0  0  0  0  0  0
   -7.3350   15.7190   -2.7020 C   0  0  0  0  0  0  0  0  0  0  0  0
   -8.1880   15.4200   -1.4550 C   0  0  0  0  0  0  0  0  0  0  0  0
  -10.1070   13.5780  -10.2880 O   0  0  0  0  0  0  0  0  0  0  0  0
  -10.0000   12.2400   -9.8650 C   0  0  0  0  0  0  0  0  0  0  0  0
  -11.1030   11.8190   -8.8930 C   0  0  0  0  0  0  0  0  0  0  0  0
  -11.1620   10.3010   -8.7520 C   0  0  0  0  0  0  0  0  0  0  0  0
  -11.3410    9.6880  -10.0060 O   0  0  0  0  0  0  0  0  0  0  0  0
  -10.2200    9.9070  -10.8190 C   0  0  0  0  0  0  0  0  0  0  0  0
  -10.0990   11.3920  -11.1430 C   0  0  0  0  0  0  0  0  0  0  0  0
 27 28  1  0
 28 29  1  0
 29 30  1  0
 30 31  1  0
 31 26  1  0
 26 25  1  0
 25 24  1  0
 24  1  1  0
  1  2  2  0
  2  3  1  0
  3  4  2  0
  4  5  1  0
  5 34  1  0
 34 35  1  0
 35 36  1  0
 36 37  1  0
 37 38  1  0
 38 39  1  0
 39 40  1  0
  5  6  2  0
  4  7  1  0
  7 12  1  0
 12 14  1  0
 14 15  2  0
 15 16  1  0
 15 17  1  0
 17 18  2  0
 18 19  1  0
 19 20  2  0
 20 21  1  0
 21 22  1  0
 22 23  1  0
  7  8  1  0
  8  9  2  0
  9 10  1  0
 31 32  1  0
 32 33  1  0
 33 28  1  0
  6  1  1  0
 20 14  1  0
 10  3  1  0
 40 35  1  0
 23 19  1  0
 12 13  1  0
 10 11  1  0
M  END
> <meeko>
{"is_sidechain": false}

> <source_group>
FYN canonical

> <source_system>
FYN_saracatinib

> <source_run>
vina_initial_seed20260824_ex16

> <source_seed>
20260824

> <vina_pose_rank>
1

> <vina_affinity_kcal_mol>
-9.1549999999999994

> <vina_rmsd_to_crystal_angstrom>
1.8531

> <minimizedAffinity>
-9.15421

> <CNNscore>
0.6180745363

> <CNNaffinity>
7.5884575844

> <CNN_VS>
4.6902322769

> <CNNaffinity_variance>
0.1221975684

$$$$
FYN_saracatinib__vina_initial_seed20260824_ex16__pose02


 40 45  0  0  0  0  0  0  0  0999 V2000
  -11.6330   15.9210   -9.0430 C   0  0  0  0  0  0  0  0  0  0  0  0
  -12.7140   16.6830   -9.2500 C   0  0  0  0  0  0  0  0  0  0  0  0
  -13.5730   16.4250  -10.2460 C   0  0  0  0  0  0  0  0  0  0  0  0
  -13.4110   15.3790  -11.1040 C   0  0  0  0  0  0  0  0  0  0  0  0
  -12.3210   14.5860  -10.9090 C   0  0  0  0  0  0  0  0  0  0  0  0
  -11.4790   14.8900   -9.8950 C   0  0  0  0  0  0  0  0  0  0  0  0
  -14.3580   15.2350  -12.0760 C   0  0  0  0  0  0  0  0  0  0  0  0
  -15.3150   16.0790  -12.0970 N   0  0  0  0  0  0  0  0  0  0  0  0
  -15.3760   17.0140  -11.2510 C   0  0  0  0  0  0  0  0  0  0  0  0
  -14.5510   17.2280  -10.3260 N   0  0  0  0  0  0  0  0  0  0  0  0
  -14.6580   17.9790   -9.6970 H   0  0  0  0  0  0  0  0  0  0  0  0
  -14.5380   14.3930  -13.0250 N   0  0  0  0  0  0  0  0  0  0  0  0
  -14.3990   13.3990  -12.7040 H   0  0  0  0  0  0  0  0  0  0  0  0
  -14.8430   14.4150  -14.2680 C   0  0  0  0  0  0  0  0  0  0  0  0
  -14.0720   15.1200  -15.1450 C   0  0  0  0  0  0  0  0  0  0  0  0
  -12.6540   16.0190  -14.6870 Cl  0  0  0  0  0  0  0  0  0  0  0  0
  -14.3580   15.1510  -16.4610 C   0  0  0  0  0  0  0  0  0  0  0  0
  -15.4160   14.5020  -16.9660 C   0  0  0  0  0  0  0  0  0  0  0  0
  -16.1830   13.8130  -16.1160 C   0  0  0  0  0  0  0  0  0  0  0  0
  -15.9050   13.7740  -14.8070 C   0  0  0  0  0  0  0  0  0  0  0  0
  -16.7440   13.0820  -14.2260 O   0  0  0  0  0  0  0  0  0  0  0  0
  -17.7200   12.6560  -15.1760 C   0  0  0  0  0  0  0  0  0  0  0  0
  -17.1900   13.1640  -16.3950 O   0  0  0  0  0  0  0  0  0  0  0  0
  -10.7430   16.1590   -8.0250 O   0  0  0  0  0  0  0  0  0  0  0  0
   -9.6850   15.2370   -7.9080 C   0  0  0  0  0  0  0  0  0  0  0  0
   -9.8370   14.3220   -6.6810 C   0  0  0  0  0  0  0  0  0  0  0  0
   -9.6050    9.2180   -9.0790 C   0  0  0  0  0  0  0  0  0  0  0  0
   -9.6350   10.6430   -8.8000 N   0  0  0  0  0  0  0  0  0  0  0  0
  -10.8640   10.9930   -8.1100 C   0  0  0  0  0  0  0  0  0  0  0  0
  -10.9060   12.4830   -7.7410 C   0  0  0  0  0  0  0  0  0  0  0  0
   -9.7600   12.8870   -6.9310 N   0  0  0  0  0  0  0  0  0  0  0  0
   -8.5470   12.5340   -7.6520 C   0  0  0  0  0  0  0  0  0  0  0  0
   -8.4960   11.0310   -7.9890 C   0  0  0  0  0  0  0  0  0  0  0  0
  -12.0480   13.5090  -11.7320 O   0  0  0  0  0  0  0  0  0  0  0  0
  -12.0440   12.1790  -11.2740 C   0  0  0  0  0  0  0  0  0  0  0  0
  -13.4370   11.6470  -10.9340 C   0  0  0  0  0  0  0  0  0  0  0  0
  -13.4280   10.1280  -10.7980 C   0  0  0  0  0  0  0  0  0  0  0  0
  -12.9350    9.5230  -11.9680 O   0  0  0  0  0  0  0  0  0  0  0  0
  -11.5850    9.8510  -12.1550 C   0  0  0  0  0  0  0  0  0  0  0  0
  -11.4500   11.3460  -12.4220 C   0  0  0  0  0  0  0  0  0  0  0  0
 27 28  1  0
 28 29  1  0
 29 30  1  0
 30 31  1  0
 31 26  1  0
 26 25  1  0
 25 24  1  0
 24  1  1  0
  1  2  2  0
  2  3  1  0
  3  4  2  0
  4  5  1  0
  5 34  1  0
 34 35  1  0
 35 36  1  0
 36 37  1  0
 37 38  1  0
 38 39  1  0
 39 40  1  0
  5  6  2  0
  4  7  1  0
  7 12  1  0
 12 14  1  0
 14 15  2  0
 15 16  1  0
 15 17  1  0
 17 18  2  0
 18 19  1  0
 19 20  2  0
 20 21  1  0
 21 22  1  0
 22 23  1  0
  7  8  1  0
  8  9  2  0
  9 10  1  0
 31 32  1  0
 32 33  1  0
 33 28  1  0
  6  1  1  0
 20 14  1  0
 10  3  1  0
 40 35  1  0
 23 19  1  0
 12 13  1  0
 10 11  1  0
M  END
> <meeko>
{"is_sidechain": false}

> <source_group>
FYN canonical

> <source_system>
FYN_saracatinib

> <source_run>
vina_initial_seed20260824_ex16

> <source_seed>
20260824

> <vina_pose_rank>
2

> <vina_affinity_kcal_mol>
-8.9740000000000002

> <vina_rmsd_to_crystal_angstrom>
4.3964999999999996

> <minimizedAffinity>
-8.70838

> <CNNscore>
0.7458519340

> <CNNaffinity>
7.7831778526

> <CNN_VS>
5.8050980568

> <CNNaffinity_variance>
0.3687848151

$$$$
FYN_saracatinib__vina_initial_seed20260824_ex16__pose03


 40 45  0  0  0  0  0  0  0  0999 V2000
  -10.1320   16.0720   -7.2900 C   0  0  0  0  0  0  0  0  0  0  0  0
  -11.2370   16.7610   -7.5970 C   0  0  0  0  0  0  0  0  0  0  0  0
  -11.9400   16.4990   -8.7090 C   0  0  0  0  0  0  0  0  0  0  0  0
  -11.5850   15.5210   -9.5890 C   0  0  0  0  0  0  0  0  0  0  0  0
  -10.4670   14.8020   -9.2930 C   0  0  0  0  0  0  0  0  0  0  0  0
   -9.7880   15.1080   -8.1640 C   0  0  0  0  0  0  0  0  0  0  0  0
  -12.3880   15.3650  -10.6810 C   0  0  0  0  0  0  0  0  0  0  0  0
  -13.4010   16.1340  -10.7850 N   0  0  0  0  0  0  0  0  0  0  0  0
  -13.6440   17.0090   -9.9090 C   0  0  0  0  0  0  0  0  0  0  0  0
  -12.9630   17.2290   -8.8750 N   0  0  0  0  0  0  0  0  0  0  0  0
  -13.2100   17.9310   -8.2300 H   0  0  0  0  0  0  0  0  0  0  0  0
  -12.3780   14.5690  -11.6860 N   0  0  0  0  0  0  0  0  0  0  0  0
  -11.4070   14.4290  -12.0710 H   0  0  0  0  0  0  0  0  0  0  0  0
  -13.2220   13.8870  -12.3640 C   0  0  0  0  0  0  0  0  0  0  0  0
  -13.6440   14.3390  -13.5790 C   0  0  0  0  0  0  0  0  0  0  0  0
  -13.0990   15.8240  -14.3060 Cl  0  0  0  0  0  0  0  0  0  0  0  0
  -14.5210   13.6370  -14.3230 C   0  0  0  0  0  0  0  0  0  0  0  0
  -15.0260   12.4710  -13.9000 C   0  0  0  0  0  0  0  0  0  0  0  0
  -14.6250   12.0190  -12.7080 C   0  0  0  0  0  0  0  0  0  0  0  0
  -13.7520   12.7090  -11.9630 C   0  0  0  0  0  0  0  0  0  0  0  0
  -13.5340   12.1010  -10.9130 O   0  0  0  0  0  0  0  0  0  0  0  0
  -14.3560   10.9360  -10.8810 C   0  0  0  0  0  0  0  0  0  0  0  0
  -14.9810   10.9780  -12.1580 O   0  0  0  0  0  0  0  0  0  0  0  0
   -9.3990   16.3150   -6.1540 O   0  0  0  0  0  0  0  0  0  0  0  0
   -8.6260   15.2380   -5.6820 C   0  0  0  0  0  0  0  0  0  0  0  0
   -7.8440   15.5920   -4.4060 C   0  0  0  0  0  0  0  0  0  0  0  0
   -9.1100   14.1640    0.9060 C   0  0  0  0  0  0  0  0  0  0  0  0
   -8.4500   14.4650   -0.3530 N   0  0  0  0  0  0  0  0  0  0  0  0
   -8.9670   13.6110   -1.4070 C   0  0  0  0  0  0  0  0  0  0  0  0
   -8.3390   13.9430   -2.7680 C   0  0  0  0  0  0  0  0  0  0  0  0
   -8.5240   15.3420   -3.1400 N   0  0  0  0  0  0  0  0  0  0  0  0
   -7.9870   16.1710   -2.0710 C   0  0  0  0  0  0  0  0  0  0  0  0
   -8.6460   15.8570   -0.7140 C   0  0  0  0  0  0  0  0  0  0  0  0
  -10.0050   13.8000  -10.1260 O   0  0  0  0  0  0  0  0  0  0  0  0
   -9.8890   12.4590   -9.7150 C   0  0  0  0  0  0  0  0  0  0  0  0
  -11.0230   12.0010   -8.7970 C   0  0  0  0  0  0  0  0  0  0  0  0
  -11.0550   10.4810   -8.6780 C   0  0  0  0  0  0  0  0  0  0  0  0
  -11.1670    9.8820   -9.9460 O   0  0  0  0  0  0  0  0  0  0  0  0
  -10.0170   10.1340  -10.7080 C   0  0  0  0  0  0  0  0  0  0  0  0
   -9.9150   11.6260  -11.0070 C   0  0  0  0  0  0  0  0  0  0  0  0
 27 28  1  0
 28 29  1  0
 29 30  1  0
 30 31  1  0
 31 26  1  0
 26 25  1  0
 25 24  1  0
 24  1  1  0
  1  2  2  0
  2  3  1  0
  3  4  2  0
  4  5  1  0
  5 34  1  0
 34 35  1  0
 35 36  1  0
 36 37  1  0
 37 38  1  0
 38 39  1  0
 39 40  1  0
  5  6  2  0
  4  7  1  0
  7 12  1  0
 12 14  1  0
 14 15  2  0
 15 16  1  0
 15 17  1  0
 17 18  2  0
 18 19  1  0
 19 20  2  0
 20 21  1  0
 21 22  1  0
 22 23  1  0
  7  8  1  0
  8  9  2  0
  9 10  1  0
 31 32  1  0
 32 33  1  0
 33 28  1  0
  6  1  1  0
 20 14  1  0
 10  3  1  0
 40 35  1  0
 23 19  1  0
 12 13  1  0
 10 11  1  0
M  END
> <meeko>
{"is_sidechain": false}

> <source_group>
FYN canonical

> <source_system>
FYN_saracatinib

> <source_run>
vina_initial_seed20260824_ex16

> <source_seed>
20260824

> <vina_pose_rank>
3

> <vina_affinity_kcal_mol>
-8.9649999999999999

> <vina_rmsd_to_crystal_angstrom>
2.7244999999999999

> <minimizedAffinity>
-8.92310

> <CNNscore>
0.7235633135

> <CNNaffinity>
7.6178736687

> <CNN_VS>
5.5120139122

> <CNNaffinity_variance>
0.2177621871

$$$$
FYN_saracatinib__vina_initial_seed20260824_ex16__pose04


 40 45  0  0  0  0  0  0  0  0999 V2000
  -10.6920   13.0840   -7.6300 C   0  0  0  0  0  0  0  0  0  0  0  0
  -11.1640   14.3250   -7.7980 C   0  0  0  0  0  0  0  0  0  0  0  0
  -11.7050   14.7180   -8.9600 C   0  0  0  0  0  0  0  0  0  0  0  0
  -11.8160   13.8890  -10.0360 C   0  0  0  0  0  0  0  0  0  0  0  0
  -11.3490   12.6190   -9.8860 C   0  0  0  0  0  0  0  0  0  0  0  0
  -10.8050   12.2710   -8.6970 C   0  0  0  0  0  0  0  0  0  0  0  0
  -12.3830   14.4200  -11.1580 C   0  0  0  0  0  0  0  0  0  0  0  0
  -12.7670   15.6360  -11.1070 N   0  0  0  0  0  0  0  0  0  0  0  0
  -12.6210   16.3200  -10.0560 C   0  0  0  0  0  0  0  0  0  0  0  0
  -12.1080   15.9190   -8.9790 N   0  0  0  0  0  0  0  0  0  0  0  0
  -12.0240   16.5080   -8.1940 H   0  0  0  0  0  0  0  0  0  0  0  0
  -12.6550   13.9570  -12.3220 N   0  0  0  0  0  0  0  0  0  0  0  0
  -11.8140   13.5170  -12.7800 H   0  0  0  0  0  0  0  0  0  0  0  0
  -13.6700   13.8760  -13.0970 C   0  0  0  0  0  0  0  0  0  0  0  0
  -14.6230   12.9260  -12.8730 C   0  0  0  0  0  0  0  0  0  0  0  0
  -14.5630   11.7780  -11.5660 Cl  0  0  0  0  0  0  0  0  0  0  0  0
  -15.7110   12.8240  -13.6620 C   0  0  0  0  0  0  0  0  0  0  0  0
  -15.9000   13.6430  -14.7060 C   0  0  0  0  0  0  0  0  0  0  0  0
  -14.9710   14.5730  -14.9400 C   0  0  0  0  0  0  0  0  0  0  0  0
  -13.8880   14.6840  -14.1590 C   0  0  0  0  0  0  0  0  0  0  0  0
  -13.1780   15.6060  -14.5650 O   0  0  0  0  0  0  0  0  0  0  0  0
  -13.7610   16.1430  -15.7510 C   0  0  0  0  0  0  0  0  0  0  0  0
  -14.9730   15.4040  -15.8470 O   0  0  0  0  0  0  0  0  0  0  0  0
  -10.1410   12.6550   -6.4470 O   0  0  0  0  0  0  0  0  0  0  0  0
   -8.7960   12.2460   -6.5110 C   0  0  0  0  0  0  0  0  0  0  0  0
   -7.8550   13.2030   -5.7590 C   0  0  0  0  0  0  0  0  0  0  0  0
   -8.3540   18.6660   -4.4310 C   0  0  0  0  0  0  0  0  0  0  0  0
   -7.8870   17.3110   -4.6700 N   0  0  0  0  0  0  0  0  0  0  0  0
   -8.6610   16.3670   -3.8840 C   0  0  0  0  0  0  0  0  0  0  0  0
   -8.2390   14.9170   -4.1580 C   0  0  0  0  0  0  0  0  0  0  0  0
   -8.3360   14.5670   -5.5720 N   0  0  0  0  0  0  0  0  0  0  0  0
   -7.5420   15.5230   -6.3310 C   0  0  0  0  0  0  0  0  0  0  0  0
   -7.9930   16.9740   -6.0780 C   0  0  0  0  0  0  0  0  0  0  0  0
  -11.3940   11.7000  -10.9180 O   0  0  0  0  0  0  0  0  0  0  0  0
  -10.8290   10.4150  -10.8220 C   0  0  0  0  0  0  0  0  0  0  0  0
  -11.8570    9.2870  -10.9200 C   0  0  0  0  0  0  0  0  0  0  0  0
  -11.1790    7.9450  -11.1760 C   0  0  0  0  0  0  0  0  0  0  0  0
  -10.3850    7.9980  -12.3360 O   0  0  0  0  0  0  0  0  0  0  0  0
   -9.3150    8.8850  -12.1540 C   0  0  0  0  0  0  0  0  0  0  0  0
   -9.8440   10.3070  -11.9980 C   0  0  0  0  0  0  0  0  0  0  0  0
 27 28  1  0
 28 29  1  0
 29 30  1  0
 30 31  1  0
 31 26  1  0
 26 25  1  0
 25 24  1  0
 24  1  1  0
  1  2  2  0
  2  3  1  0
  3  4  2  0
  4  5  1  0
  5 34  1  0
 34 35  1  0
 35 36  1  0
 36 37  1  0
 37 38  1  0
 38 39  1  0
 39 40  1  0
  5  6  2  0
  4  7  1  0
  7 12  1  0
 12 14  1  0
 14 15  2  0
 15 16  1  0
 15 17  1  0
 17 18  2  0
 18 19  1  0
 19 20  2  0
 20 21  1  0
 21 22  1  0
 22 23  1  0
  7  8  1  0
  8  9  2  0
  9 10  1  0
 31 32  1  0
 32 33  1  0
 33 28  1  0
  6  1  1  0
 20 14  1  0
 10  3  1  0
 40 35  1  0
 23 19  1  0
 12 13  1  0
 10 11  1  0
M  END
> <meeko>
{"is_sidechain": false}

> <source_group>
FYN canonical

> <source_system>
FYN_saracatinib

> <source_run>
vina_initial_seed20260824_ex16

> <source_seed>
20260824

> <vina_pose_rank>
4

> <vina_affinity_kcal_mol>
-8.9559999999999995

> <vina_rmsd_to_crystal_angstrom>
2.7764000000000002

> <minimizedAffinity>
-8.82208

> <CNNscore>
0.2813707888

> <CNNaffinity>
7.2238306999

> <CNN_VS>
2.0325748920

> <CNNaffinity_variance>
0.1878436059

$$$$
FYN_saracatinib__vina_initial_seed20260824_ex16__pose05


 40 45  0  0  0  0  0  0  0  0999 V2000
  -10.5080   16.1150   -7.8030 C   0  0  0  0  0  0  0  0  0  0  0  0
  -11.6010   16.8130   -8.1310 C   0  0  0  0  0  0  0  0  0  0  0  0
  -12.3290   16.5070   -9.2140 C   0  0  0  0  0  0  0  0  0  0  0  0
  -12.0140   15.4720  -10.0430 C   0  0  0  0  0  0  0  0  0  0  0  0
  -10.9090   14.7430   -9.7250 C   0  0  0  0  0  0  0  0  0  0  0  0
  -10.2020   15.0950   -8.6260 C   0  0  0  0  0  0  0  0  0  0  0  0
  -12.8390   15.2740  -11.1110 C   0  0  0  0  0  0  0  0  0  0  0  0
  -13.8350   16.0620  -11.2430 N   0  0  0  0  0  0  0  0  0  0  0  0
  -14.0410   16.9910  -10.4150 C   0  0  0  0  0  0  0  0  0  0  0  0
  -13.3360   17.2520   -9.4060 N   0  0  0  0  0  0  0  0  0  0  0  0
  -13.5550   17.9960   -8.7980 H   0  0  0  0  0  0  0  0  0  0  0  0
  -12.8660   14.4230  -12.0690 N   0  0  0  0  0  0  0  0  0  0  0  0
  -11.9720   13.8680  -12.1320 H   0  0  0  0  0  0  0  0  0  0  0  0
  -13.6810   14.0490  -12.9830 C   0  0  0  0  0  0  0  0  0  0  0  0
  -14.4080   12.9070  -12.8220 C   0  0  0  0  0  0  0  0  0  0  0  0
  -14.3120   11.8840  -11.4170 Cl  0  0  0  0  0  0  0  0  0  0  0  0
  -15.2830   12.4950  -13.7600 C   0  0  0  0  0  0  0  0  0  0  0  0
  -15.4720   13.1820  -14.8950 C   0  0  0  0  0  0  0  0  0  0  0  0
  -14.7610   14.2990  -15.0680 C   0  0  0  0  0  0  0  0  0  0  0  0
  -13.8910   14.7180  -14.1400 C   0  0  0  0  0  0  0  0  0  0  0  0
  -13.3560   15.7640  -14.5160 O   0  0  0  0  0  0  0  0  0  0  0  0
  -13.8300   16.0730  -15.8260 C   0  0  0  0  0  0  0  0  0  0  0  0
  -14.7980   15.0520  -16.0400 O   0  0  0  0  0  0  0  0  0  0  0  0
   -9.7490   16.4030   -6.6950 O   0  0  0  0  0  0  0  0  0  0  0  0
   -8.4730   15.8110   -6.6550 C   0  0  0  0  0  0  0  0  0  0  0  0
   -8.2350   15.0160   -5.3600 C   0  0  0  0  0  0  0  0  0  0  0  0
   -7.2390    9.8580   -7.4260 C   0  0  0  0  0  0  0  0  0  0  0  0
   -7.4660   11.2810   -7.2380 N   0  0  0  0  0  0  0  0  0  0  0  0
   -8.7590   11.5040   -6.6150 C   0  0  0  0  0  0  0  0  0  0  0  0
   -9.0090   12.9940   -6.3410 C   0  0  0  0  0  0  0  0  0  0  0  0
   -7.9620   13.5910   -5.5180 N   0  0  0  0  0  0  0  0  0  0  0  0
   -6.6820   13.3610   -6.1720 C   0  0  0  0  0  0  0  0  0  0  0  0
   -6.4220   11.8620   -6.4130 C   0  0  0  0  0  0  0  0  0  0  0  0
  -10.4870   13.6830  -10.5060 O   0  0  0  0  0  0  0  0  0  0  0  0
  -10.1160   12.4370   -9.9680 C   0  0  0  0  0  0  0  0  0  0  0  0
  -11.3060   11.5910   -9.5130 C   0  0  0  0  0  0  0  0  0  0  0  0
  -10.8950   10.1410   -9.2840 C   0  0  0  0  0  0  0  0  0  0  0  0
  -10.3110    9.5970  -10.4430 O   0  0  0  0  0  0  0  0  0  0  0  0
   -9.1020   10.2470  -10.7300 C   0  0  0  0  0  0  0  0  0  0  0  0
   -9.3740   11.7020  -11.0960 C   0  0  0  0  0  0  0  0  0  0  0  0
 27 28  1  0
 28 29  1  0
 29 30  1  0
 30 31  1  0
 31 26  1  0
 26 25  1  0
 25 24  1  0
 24  1  1  0
  1  2  2  0
  2  3  1  0
  3  4  2  0
  4  5  1  0
  5 34  1  0
 34 35  1  0
 35 36  1  0
 36 37  1  0
 37 38  1  0
 38 39  1  0
 39 40  1  0
  5  6  2  0
  4  7  1  0
  7 12  1  0
 12 14  1  0
 14 15  2  0
 15 16  1  0
 15 17  1  0
 17 18  2  0
 18 19  1  0
 19 20  2  0
 20 21  1  0
 21 22  1  0
 22 23  1  0
  7  8  1  0
  8  9  2  0
  9 10  1  0
 31 32  1  0
 32 33  1  0
 33 28  1  0
  6  1  1  0
 20 14  1  0
 10  3  1  0
 40 35  1  0
 23 19  1  0
 12 13  1  0
 10 11  1  0
M  END
> <meeko>
{"is_sidechain": false}

> <source_group>
FYN canonical

> <source_system>
FYN_saracatinib

> <source_run>
vina_initial_seed20260824_ex16

> <source_seed>
20260824

> <vina_pose_rank>
5

> <vina_affinity_kcal_mol>
-8.8279999999999994

> <vina_rmsd_to_crystal_angstrom>
2.8915999999999999

> <minimizedAffinity>
-8.66238

> <CNNscore>
0.4134050906

> <CNNaffinity>
7.4378027916

> <CNN_VS>
3.0748255253

> <CNNaffinity_variance>
0.2581137717

$$$$
FYN_saracatinib__vina_initial_seed20260824_ex16__pose06


 40 45  0  0  0  0  0  0  0  0999 V2000
  -10.4580   15.9280   -7.6910 C   0  0  0  0  0  0  0  0  0  0  0  0
  -11.5550   16.6340   -7.9890 C   0  0  0  0  0  0  0  0  0  0  0  0
  -12.2690   16.3850   -9.0960 C   0  0  0  0  0  0  0  0  0  0  0  0
  -11.9350   15.4060   -9.9810 C   0  0  0  0  0  0  0  0  0  0  0  0
  -10.8250   14.6700   -9.6960 C   0  0  0  0  0  0  0  0  0  0  0  0
  -10.1330   14.9620   -8.5710 C   0  0  0  0  0  0  0  0  0  0  0  0
  -12.7480   15.2640  -11.0680 C   0  0  0  0  0  0  0  0  0  0  0  0
  -13.7500   16.0490  -11.1630 N   0  0  0  0  0  0  0  0  0  0  0  0
  -13.9740   16.9240  -10.2830 C   0  0  0  0  0  0  0  0  0  0  0  0
  -13.2820   17.1310   -9.2530 N   0  0  0  0  0  0  0  0  0  0  0  0
  -13.5140   17.8350   -8.6030 H   0  0  0  0  0  0  0  0  0  0  0  0
  -12.7560   14.4720  -12.0760 N   0  0  0  0  0  0  0  0  0  0  0  0
  -11.8200   14.0120  -12.2270 H   0  0  0  0  0  0  0  0  0  0  0  0
  -13.5890   14.0740  -12.9630 C   0  0  0  0  0  0  0  0  0  0  0  0
  -14.2970   12.9260  -12.7650 C   0  0  0  0  0  0  0  0  0  0  0  0
  -14.1530   11.9260  -11.3480 Cl  0  0  0  0  0  0  0  0  0  0  0  0
  -15.1920   12.4890  -13.6730 C   0  0  0  0  0  0  0  0  0  0  0  0
  -15.4180   13.1550  -14.8140 C   0  0  0  0  0  0  0  0  0  0  0  0
  -14.7260   14.2780  -15.0220 C   0  0  0  0  0  0  0  0  0  0  0  0
  -13.8370   14.7220  -14.1240 C   0  0  0  0  0  0  0  0  0  0  0  0
  -13.3260   15.7680  -14.5290 O   0  0  0  0  0  0  0  0  0  0  0  0
  -13.8380   16.0510  -15.8310 C   0  0  0  0  0  0  0  0  0  0  0  0
  -14.7970   15.0150  -16.0040 O   0  0  0  0  0  0  0  0  0  0  0  0
   -9.7130   16.1570   -6.5600 O   0  0  0  0  0  0  0  0  0  0  0  0
   -8.6080   15.3060   -6.3720 C   0  0  0  0  0  0  0  0  0  0  0  0
   -8.0000   15.4360   -4.9650 C   0  0  0  0  0  0  0  0  0  0  0  0
   -6.7100   20.9280   -4.7700 C   0  0  0  0  0  0  0  0  0  0  0  0
   -7.2810   19.6240   -5.0620 N   0  0  0  0  0  0  0  0  0  0  0  0
   -6.2500   18.7200   -5.5410 C   0  0  0  0  0  0  0  0  0  0  0  0
   -6.8030   17.3120   -5.8000 C   0  0  0  0  0  0  0  0  0  0  0  0
   -7.4430   16.7390   -4.6190 N   0  0  0  0  0  0  0  0  0  0  0  0
   -8.4770   17.6610   -4.1710 C   0  0  0  0  0  0  0  0  0  0  0  0
   -7.9090   19.0630   -3.8790 C   0  0  0  0  0  0  0  0  0  0  0  0
  -10.3840   13.6630  -10.5350 O   0  0  0  0  0  0  0  0  0  0  0  0
  -10.2750   12.3210  -10.1260 C   0  0  0  0  0  0  0  0  0  0  0  0
  -11.3580   11.8950   -9.1340 C   0  0  0  0  0  0  0  0  0  0  0  0
  -11.4200   10.3770   -9.0060 C   0  0  0  0  0  0  0  0  0  0  0  0
  -11.6300    9.7770  -10.2610 O   0  0  0  0  0  0  0  0  0  0  0  0
  -10.5260    9.9970  -11.0970 C   0  0  0  0  0  0  0  0  0  0  0  0
  -10.4060   11.4850  -11.4100 C   0  0  0  0  0  0  0  0  0  0  0  0
 27 28  1  0
 28 29  1  0
 29 30  1  0
 30 31  1  0
 31 26  1  0
 26 25  1  0
 25 24  1  0
 24  1  1  0
  1  2  2  0
  2  3  1  0
  3  4  2  0
  4  5  1  0
  5 34  1  0
 34 35  1  0
 35 36  1  0
 36 37  1  0
 37 38  1  0
 38 39  1  0
 39 40  1  0
  5  6  2  0
  4  7  1  0
  7 12  1  0
 12 14  1  0
 14 15  2  0
 15 16  1  0
 15 17  1  0
 17 18  2  0
 18 19  1  0
 19 20  2  0
 20 21  1  0
 21 22  1  0
 22 23  1  0
  7  8  1  0
  8  9  2  0
  9 10  1  0
 31 32  1  0
 32 33  1  0
 33 28  1  0
  6  1  1  0
 20 14  1  0
 10  3  1  0
 40 35  1  0
 23 19  1  0
 12 13  1  0
 10 11  1  0
M  END
> <meeko>
{"is_sidechain": false}

> <source_group>
FYN canonical

> <source_system>
FYN_saracatinib

> <source_run>
vina_initial_seed20260824_ex16

> <source_seed>
20260824

> <vina_pose_rank>
6

> <vina_affinity_kcal_mol>
-8.6799999999999997

> <vina_rmsd_to_crystal_angstrom>
1.8712

> <minimizedAffinity>
-8.89227

> <CNNscore>
0.5634927154

> <CNNaffinity>
7.3924598694

> <CNN_VS>
4.1655974388

> <CNNaffinity_variance>
0.2590745687

$$$$
FYN_saracatinib__vina_initial_seed20260824_ex16__pose07


 40 45  0  0  0  0  0  0  0  0999 V2000
  -12.2960   15.8920   -9.8360 C   0  0  0  0  0  0  0  0  0  0  0  0
  -12.0670   16.8690   -8.9510 C   0  0  0  0  0  0  0  0  0  0  0  0
  -11.1130   16.7570   -8.0150 C   0  0  0  0  0  0  0  0  0  0  0  0
  -10.3160   15.6570   -7.9070 C   0  0  0  0  0  0  0  0  0  0  0  0
  -10.5260   14.6530   -8.8020 C   0  0  0  0  0  0  0  0  0  0  0  0
  -11.5050   14.8090   -9.7230 C   0  0  0  0  0  0  0  0  0  0  0  0
   -9.3880   15.6740   -6.9060 C   0  0  0  0  0  0  0  0  0  0  0  0
   -9.3370   16.7120   -6.1650 N   0  0  0  0  0  0  0  0  0  0  0  0
  -10.1210   17.6830   -6.3520 C   0  0  0  0  0  0  0  0  0  0  0  0
  -11.0080   17.7560   -7.2420 N   0  0  0  0  0  0  0  0  0  0  0  0
  -11.5890   18.5460   -7.3330 H   0  0  0  0  0  0  0  0  0  0  0  0
   -8.4860   14.8520   -6.5160 N   0  0  0  0  0  0  0  0  0  0  0  0
   -8.2760   14.1180   -7.2430 H   0  0  0  0  0  0  0  0  0  0  0  0
   -7.7580   14.6640   -5.4790 C   0  0  0  0  0  0  0  0  0  0  0  0
   -6.4530   15.0580   -5.4840 C   0  0  0  0  0  0  0  0  0  0  0  0
   -5.6740   15.8260   -6.8380 Cl  0  0  0  0  0  0  0  0  0  0  0  0
   -5.6650   14.8880   -4.4040 C   0  0  0  0  0  0  0  0  0  0  0  0
   -6.1240   14.3160   -3.2830 C   0  0  0  0  0  0  0  0  0  0  0  0
   -7.4000   13.9200   -3.2670 C   0  0  0  0  0  0  0  0  0  0  0  0
   -8.1910   14.0880   -4.3350 C   0  0  0  0  0  0  0  0  0  0  0  0
   -9.3170   13.6500   -4.0890 O   0  0  0  0  0  0  0  0  0  0  0  0
   -9.3060   13.0730   -2.7830 C   0  0  0  0  0  0  0  0  0  0  0  0
   -7.9900   13.3770   -2.3350 O   0  0  0  0  0  0  0  0  0  0  0  0
  -13.2610   15.9850  -10.8090 O   0  0  0  0  0  0  0  0  0  0  0  0
  -13.2240   14.9920  -11.8060 C   0  0  0  0  0  0  0  0  0  0  0  0
  -13.4490   15.5660  -13.2150 C   0  0  0  0  0  0  0  0  0  0  0  0
  -17.6280   12.5660  -15.5370 C   0  0  0  0  0  0  0  0  0  0  0  0
  -16.4460   13.0170  -14.8230 N   0  0  0  0  0  0  0  0  0  0  0  0
  -15.5440   13.7040  -15.7300 C   0  0  0  0  0  0  0  0  0  0  0  0
  -14.3110   14.2530  -14.9990 C   0  0  0  0  0  0  0  0  0  0  0  0
  -14.6670   15.1430  -13.8980 N   0  0  0  0  0  0  0  0  0  0  0  0
  -15.5610   14.4230  -13.0030 C   0  0  0  0  0  0  0  0  0  0  0  0
  -16.8130   13.9060  -13.7360 C   0  0  0  0  0  0  0  0  0  0  0  0
   -9.7880   13.4840   -8.7710 O   0  0  0  0  0  0  0  0  0  0  0  0
   -9.8870   12.4920   -9.7640 C   0  0  0  0  0  0  0  0  0  0  0  0
   -8.6110   12.3270  -10.5910 C   0  0  0  0  0  0  0  0  0  0  0  0
   -8.6350   11.0260  -11.3860 C   0  0  0  0  0  0  0  0  0  0  0  0
   -8.8250    9.9220  -10.5360 O   0  0  0  0  0  0  0  0  0  0  0  0
  -10.0940    9.9760   -9.9420 C   0  0  0  0  0  0  0  0  0  0  0  0
  -10.1780   11.1820   -9.0130 C   0  0  0  0  0  0  0  0  0  0  0  0
 27 28  1  0
 28 29  1  0
 29 30  1  0
 30 31  1  0
 31 26  1  0
 26 25  1  0
 25 24  1  0
 24  1  1  0
  1  2  2  0
  2  3  1  0
  3  4  2  0
  4  5  1  0
  5 34  1  0
 34 35  1  0
 35 36  1  0
 36 37  1  0
 37 38  1  0
 38 39  1  0
 39 40  1  0
  5  6  2  0
  4  7  1  0
  7 12  1  0
 12 14  1  0
 14 15  2  0
 15 16  1  0
 15 17  1  0
 17 18  2  0
 18 19  1  0
 19 20  2  0
 20 21  1  0
 21 22  1  0
 22 23  1  0
  7  8  1  0
  8  9  2  0
  9 10  1  0
 31 32  1  0
 32 33  1  0
 33 28  1  0
  6  1  1  0
 20 14  1  0
 10  3  1  0
 40 35  1  0
 23 19  1  0
 12 13  1  0
 10 11  1  0
M  END
> <meeko>
{"is_sidechain": false}

> <source_group>
FYN canonical

> <source_system>
FYN_saracatinib

> <source_run>
vina_initial_seed20260824_ex16

> <source_seed>
20260824

> <vina_pose_rank>
7

> <vina_affinity_kcal_mol>
-8.5879999999999992

> <vina_rmsd_to_crystal_angstrom>
9.5510999999999999

> <minimizedAffinity>
-8.69968

> <CNNscore>
0.1393976063

> <CNNaffinity>
6.1449236870

> <CNN_VS>
0.8565876484

> <CNNaffinity_variance>
1.3892918825

$$$$
FYN_saracatinib__vina_initial_seed20260824_ex16__pose08


 40 45  0  0  0  0  0  0  0  0999 V2000
  -10.6930   11.3130   -9.1690 C   0  0  0  0  0  0  0  0  0  0  0  0
  -11.6440   10.3990   -9.3950 C   0  0  0  0  0  0  0  0  0  0  0  0
  -12.6930   10.6610  -10.1890 C   0  0  0  0  0  0  0  0  0  0  0  0
  -12.8580   11.8590  -10.8170 C   0  0  0  0  0  0  0  0  0  0  0  0
  -11.8980   12.8020  -10.6060 C   0  0  0  0  0  0  0  0  0  0  0  0
  -10.8630   12.4940   -9.7920 C   0  0  0  0  0  0  0  0  0  0  0  0
  -13.9720   11.9920  -11.5920 C   0  0  0  0  0  0  0  0  0  0  0  0
  -14.7600   10.9900  -11.6720 N   0  0  0  0  0  0  0  0  0  0  0  0
  -14.5130    9.9200  -11.0510 C   0  0  0  0  0  0  0  0  0  0  0  0
  -13.5170    9.7060  -10.3120 N   0  0  0  0  0  0  0  0  0  0  0  0
  -13.3850    8.8440   -9.8550 H   0  0  0  0  0  0  0  0  0  0  0  0
  -14.4430   12.9370  -12.3190 N   0  0  0  0  0  0  0  0  0  0  0  0
  -14.5620   13.8330  -11.7770 H   0  0  0  0  0  0  0  0  0  0  0  0
  -14.8150   13.1040  -13.5330 C   0  0  0  0  0  0  0  0  0  0  0  0
  -13.8900   13.0990  -14.5350 C   0  0  0  0  0  0  0  0  0  0  0  0
  -12.1830   12.8720  -14.2810 Cl  0  0  0  0  0  0  0  0  0  0  0  0
  -14.2510   13.2590  -15.8230 C   0  0  0  0  0  0  0  0  0  0  0  0
  -15.5310   13.4390  -16.1770 C   0  0  0  0  0  0  0  0  0  0  0  0
  -16.4460   13.4520  -15.2040 C   0  0  0  0  0  0  0  0  0  0  0  0
  -16.0970   13.2920  -13.9210 C   0  0  0  0  0  0  0  0  0  0  0  0
  -17.1020   13.3390  -13.2090 O   0  0  0  0  0  0  0  0  0  0  0  0
  -18.2320   13.6170  -14.0350 C   0  0  0  0  0  0  0  0  0  0  0  0
  -17.6590   13.6070  -15.3370 O   0  0  0  0  0  0  0  0  0  0  0  0
   -9.6050   11.0670   -8.3670 O   0  0  0  0  0  0  0  0  0  0  0  0
   -8.5520   11.9970   -8.4600 C   0  0  0  0  0  0  0  0  0  0  0  0
   -8.2300   12.6560   -7.1090 C   0  0  0  0  0  0  0  0  0  0  0  0
   -7.8840   18.1380   -5.8090 C   0  0  0  0  0  0  0  0  0  0  0  0
   -8.0650   16.6970   -5.7990 N   0  0  0  0  0  0  0  0  0  0  0  0
   -9.0730   16.3110   -6.7700 C   0  0  0  0  0  0  0  0  0  0  0  0
   -9.2480   14.7870   -6.8350 C   0  0  0  0  0  0  0  0  0  0  0  0
   -7.9960   14.0960   -7.1320 N   0  0  0  0  0  0  0  0  0  0  0  0
   -7.0110   14.4940   -6.1370 C   0  0  0  0  0  0  0  0  0  0  0  0
   -6.8160   16.0220   -6.1010 C   0  0  0  0  0  0  0  0  0  0  0  0
  -11.9740   14.0580  -11.1790 O   0  0  0  0  0  0  0  0  0  0  0  0
  -11.9480   15.2450  -10.4230 C   0  0  0  0  0  0  0  0  0  0  0  0
  -12.9790   16.2800  -10.8760 C   0  0  0  0  0  0  0  0  0  0  0  0
  -13.1620   17.3710   -9.8260 C   0  0  0  0  0  0  0  0  0  0  0  0
  -13.5230   16.8160   -8.5850 O   0  0  0  0  0  0  0  0  0  0  0  0
  -12.4770   16.0340   -8.0770 C   0  0  0  0  0  0  0  0  0  0  0  0
  -12.2550   14.8230   -8.9770 C   0  0  0  0  0  0  0  0  0  0  0  0
 27 28  1  0
 28 29  1  0
 29 30  1  0
 30 31  1  0
 31 26  1  0
 26 25  1  0
 25 24  1  0
 24  1  1  0
  1  2  2  0
  2  3  1  0
  3  4  2  0
  4  5  1  0
  5 34  1  0
 34 35  1  0
 35 36  1  0
 36 37  1  0
 37 38  1  0
 38 39  1  0
 39 40  1  0
  5  6  2  0
  4  7  1  0
  7 12  1  0
 12 14  1  0
 14 15  2  0
 15 16  1  0
 15 17  1  0
 17 18  2  0
 18 19  1  0
 19 20  2  0
 20 21  1  0
 21 22  1  0
 22 23  1  0
  7  8  1  0
  8  9  2  0
  9 10  1  0
 31 32  1  0
 32 33  1  0
 33 28  1  0
  6  1  1  0
 20 14  1  0
 10  3  1  0
 40 35  1  0
 23 19  1  0
 12 13  1  0
 10 11  1  0
M  END
> <meeko>
{"is_sidechain": false}

> <source_group>
FYN canonical

> <source_system>
FYN_saracatinib

> <source_run>
vina_initial_seed20260824_ex16

> <source_seed>
20260824

> <vina_pose_rank>
8

> <vina_affinity_kcal_mol>
-8.4830000000000005

> <vina_rmsd_to_crystal_angstrom>
4.8002000000000002

> <minimizedAffinity>
-8.72969

> <CNNscore>
0.1672416776

> <CNNaffinity>
6.7121925354

> <CNN_VS>
1.1225583553

> <CNNaffinity_variance>
0.9748641849

$$$$
FYN_saracatinib__vina_initial_seed20260824_ex16__pose09


 40 45  0  0  0  0  0  0  0  0999 V2000
  -12.2280   15.7700   -9.7850 C   0  0  0  0  0  0  0  0  0  0  0  0
  -12.0350   16.6560   -8.8010 C   0  0  0  0  0  0  0  0  0  0  0  0
  -11.0020   16.5470   -7.9530 C   0  0  0  0  0  0  0  0  0  0  0  0
  -10.0850   15.5430   -8.0380 C   0  0  0  0  0  0  0  0  0  0  0  0
  -10.2570   14.6330   -9.0360 C   0  0  0  0  0  0  0  0  0  0  0  0
  -11.3190   14.7810   -9.8620 C   0  0  0  0  0  0  0  0  0  0  0  0
   -9.0860   15.5510   -7.1080 C   0  0  0  0  0  0  0  0  0  0  0  0
   -9.0870   16.4930   -6.2470 N   0  0  0  0  0  0  0  0  0  0  0  0
   -9.9840   17.3800   -6.2570 C   0  0  0  0  0  0  0  0  0  0  0  0
  -10.9420   17.4530   -7.0690 N   0  0  0  0  0  0  0  0  0  0  0  0
  -11.6100   18.1760   -7.0200 H   0  0  0  0  0  0  0  0  0  0  0  0
   -8.0720   14.7990   -6.8850 N   0  0  0  0  0  0  0  0  0  0  0  0
   -7.8790   14.1450   -7.6890 H   0  0  0  0  0  0  0  0  0  0  0  0
   -7.2160   14.6130   -5.9520 C   0  0  0  0  0  0  0  0  0  0  0  0
   -7.5210   13.7990   -4.9010 C   0  0  0  0  0  0  0  0  0  0  0  0
   -9.0370   12.9620   -4.7270 Cl  0  0  0  0  0  0  0  0  0  0  0  0
   -6.6360   13.5720   -3.9110 C   0  0  0  0  0  0  0  0  0  0  0  0
   -5.4230   14.1420   -3.9080 C   0  0  0  0  0  0  0  0  0  0  0  0
   -5.1140   14.9460   -4.9290 C   0  0  0  0  0  0  0  0  0  0  0  0
   -5.9860   15.1750   -5.9190 C   0  0  0  0  0  0  0  0  0  0  0  0
   -5.4840   15.9430   -6.7430 O   0  0  0  0  0  0  0  0  0  0  0  0
   -4.1960   16.3360   -6.2730 C   0  0  0  0  0  0  0  0  0  0  0  0
   -4.0580   15.5550   -5.0930 O   0  0  0  0  0  0  0  0  0  0  0  0
  -13.2730   15.8630  -10.6710 O   0  0  0  0  0  0  0  0  0  0  0  0
  -13.2650   14.9340  -11.7290 C   0  0  0  0  0  0  0  0  0  0  0  0
  -13.4830   15.6020  -13.0970 C   0  0  0  0  0  0  0  0  0  0  0  0
  -17.4140   12.6040  -15.8210 C   0  0  0  0  0  0  0  0  0  0  0  0
  -16.2730   13.0510  -15.0420 N   0  0  0  0  0  0  0  0  0  0  0  0
  -15.4200   13.9080  -15.8470 C   0  0  0  0  0  0  0  0  0  0  0  0
  -14.2340   14.4530  -15.0380 C   0  0  0  0  0  0  0  0  0  0  0  0
  -14.6620   15.1760  -13.8440 N   0  0  0  0  0  0  0  0  0  0  0  0
  -15.5040   14.2900  -13.0540 C   0  0  0  0  0  0  0  0  0  0  0  0
  -16.7100   13.7740  -13.8610 C   0  0  0  0  0  0  0  0  0  0  0  0
   -9.3980   13.5630   -9.2030 O   0  0  0  0  0  0  0  0  0  0  0  0
   -9.8430   12.2680   -9.5250 C   0  0  0  0  0  0  0  0  0  0  0  0
   -8.8490   11.4750  -10.3740 C   0  0  0  0  0  0  0  0  0  0  0  0
   -9.1990    9.9910  -10.3890 C   0  0  0  0  0  0  0  0  0  0  0  0
   -9.2580    9.4770   -9.0800 O   0  0  0  0  0  0  0  0  0  0  0  0
  -10.3160   10.0650   -8.3730 C   0  0  0  0  0  0  0  0  0  0  0  0
  -10.0440   11.5530   -8.1790 C   0  0  0  0  0  0  0  0  0  0  0  0
 27 28  1  0
 28 29  1  0
 29 30  1  0
 30 31  1  0
 31 26  1  0
 26 25  1  0
 25 24  1  0
 24  1  1  0
  1  2  2  0
  2  3  1  0
  3  4  2  0
  4  5  1  0
  5 34  1  0
 34 35  1  0
 35 36  1  0
 36 37  1  0
 37 38  1  0
 38 39  1  0
 39 40  1  0
  5  6  2  0
  4  7  1  0
  7 12  1  0
 12 14  1  0
 14 15  2  0
 15 16  1  0
 15 17  1  0
 17 18  2  0
 18 19  1  0
 19 20  2  0
 20 21  1  0
 21 22  1  0
 22 23  1  0
  7  8  1  0
  8  9  2  0
  9 10  1  0
 31 32  1  0
 32 33  1  0
 33 28  1  0
  6  1  1  0
 20 14  1  0
 10  3  1  0
 40 35  1  0
 23 19  1  0
 12 13  1  0
 10 11  1  0
M  END
> <meeko>
{"is_sidechain": false}

> <source_group>
FYN canonical

> <source_system>
FYN_saracatinib

> <source_run>
vina_initial_seed20260824_ex16

> <source_seed>
20260824

> <vina_pose_rank>
9

> <vina_affinity_kcal_mol>
-8.3859999999999992

> <vina_rmsd_to_crystal_angstrom>
9.4322999999999997

> <minimizedAffinity>
-8.41948

> <CNNscore>
0.0822221935

> <CNNaffinity>
5.8722901344

> <CNN_VS>
0.4828325808

> <CNNaffinity_variance>
1.3540827036

$$$$
FYN_saracatinib__vina_initial_seed20260824_ex16__pose10


 40 45  0  0  0  0  0  0  0  0999 V2000
  -10.3790   13.6270   -7.5700 C   0  0  0  0  0  0  0  0  0  0  0  0
  -11.1550   14.7170   -7.5860 C   0  0  0  0  0  0  0  0  0  0  0  0
  -11.7600   15.1300   -8.7090 C   0  0  0  0  0  0  0  0  0  0  0  0
  -11.6330   14.4740   -9.8970 C   0  0  0  0  0  0  0  0  0  0  0  0
  -10.8530   13.3570   -9.9030 C   0  0  0  0  0  0  0  0  0  0  0  0
  -10.2580   12.9840   -8.7470 C   0  0  0  0  0  0  0  0  0  0  0  0
  -12.2990   15.0060  -10.9610 C   0  0  0  0  0  0  0  0  0  0  0  0
  -12.9880   16.0620  -10.7600 N   0  0  0  0  0  0  0  0  0  0  0  0
  -13.0430   16.5920   -9.6160 C   0  0  0  0  0  0  0  0  0  0  0  0
  -12.4620   16.1770   -8.5800 N   0  0  0  0  0  0  0  0  0  0  0  0
  -12.5480   16.6410   -7.7150 H   0  0  0  0  0  0  0  0  0  0  0  0
  -12.4210   14.6720  -12.1930 N   0  0  0  0  0  0  0  0  0  0  0  0
  -11.6290   15.0380  -12.7830 H   0  0  0  0  0  0  0  0  0  0  0  0
  -13.2420   14.0100  -12.9190 C   0  0  0  0  0  0  0  0  0  0  0  0
  -13.5350   14.4410  -14.1790 C   0  0  0  0  0  0  0  0  0  0  0  0
  -12.8520   15.8690  -14.9020 Cl  0  0  0  0  0  0  0  0  0  0  0  0
  -14.3840   13.7590  -14.9730 C   0  0  0  0  0  0  0  0  0  0  0  0
  -14.9850   12.6350  -14.5580 C   0  0  0  0  0  0  0  0  0  0  0  0
  -14.7110   12.2060  -13.3230 C   0  0  0  0  0  0  0  0  0  0  0  0
  -13.8660   12.8760  -12.5280 C   0  0  0  0  0  0  0  0  0  0  0  0
  -13.7700   12.2950  -11.4450 O   0  0  0  0  0  0  0  0  0  0  0  0
  -14.6540   11.1760  -11.4470 C   0  0  0  0  0  0  0  0  0  0  0  0
  -15.1670   11.2050  -12.7740 O   0  0  0  0  0  0  0  0  0  0  0  0
   -9.7550   13.1780   -6.4320 O   0  0  0  0  0  0  0  0  0  0  0  0
   -8.9430   14.1160   -5.7670 C   0  0  0  0  0  0  0  0  0  0  0  0
   -7.7170   14.5250   -6.6000 C   0  0  0  0  0  0  0  0  0  0  0  0
   -6.5500   19.8330   -5.0770 C   0  0  0  0  0  0  0  0  0  0  0  0
   -6.8470   18.4110   -5.1150 N   0  0  0  0  0  0  0  0  0  0  0  0
   -8.1110   18.1820   -5.7920 C   0  0  0  0  0  0  0  0  0  0  0  0
   -8.4300   16.6840   -5.9100 C   0  0  0  0  0  0  0  0  0  0  0  0
   -7.3720   15.9420   -6.5890 N   0  0  0  0  0  0  0  0  0  0  0  0
   -6.1220   16.1830   -5.8820 C   0  0  0  0  0  0  0  0  0  0  0  0
   -5.7910   17.6860   -5.7980 C   0  0  0  0  0  0  0  0  0  0  0  0
  -10.6390   12.6250  -11.0560 O   0  0  0  0  0  0  0  0  0  0  0  0
  -10.4700   11.2280  -11.0540 C   0  0  0  0  0  0  0  0  0  0  0  0
  -11.3520   10.5080  -10.0330 C   0  0  0  0  0  0  0  0  0  0  0  0
  -11.4060    9.0100  -10.3120 C   0  0  0  0  0  0  0  0  0  0  0  0
  -11.8540    8.7610  -11.6220 O   0  0  0  0  0  0  0  0  0  0  0  0
  -10.9240    9.2420  -12.5550 C   0  0  0  0  0  0  0  0  0  0  0  0
  -10.8490   10.7630  -12.4700 C   0  0  0  0  0  0  0  0  0  0  0  0
 27 28  1  0
 28 29  1  0
 29 30  1  0
 30 31  1  0
 31 26  1  0
 26 25  1  0
 25 24  1  0
 24  1  1  0
  1  2  2  0
  2  3  1  0
  3  4  2  0
  4  5  1  0
  5 34  1  0
 34 35  1  0
 35 36  1  0
 36 37  1  0
 37 38  1  0
 38 39  1  0
 39 40  1  0
  5  6  2  0
  4  7  1  0
  7 12  1  0
 12 14  1  0
 14 15  2  0
 15 16  1  0
 15 17  1  0
 17 18  2  0
 18 19  1  0
 19 20  2  0
 20 21  1  0
 21 22  1  0
 22 23  1  0
  7  8  1  0
  8  9  2  0
  9 10  1  0
 31 32  1  0
 32 33  1  0
 33 28  1  0
  6  1  1  0
 20 14  1  0
 10  3  1  0
 40 35  1  0
 23 19  1  0
 12 13  1  0
 10 11  1  0
M  END
> <meeko>
{"is_sidechain": false}

> <source_group>
FYN canonical

> <source_system>
FYN_saracatinib

> <source_run>
vina_initial_seed20260824_ex16

> <source_seed>
20260824

> <vina_pose_rank>
10

> <vina_affinity_kcal_mol>
-8.2430000000000003

> <vina_rmsd_to_crystal_angstrom>
3.2069999999999999

> <minimizedAffinity>
-8.36475

> <CNNscore>
0.7497524023

> <CNNaffinity>
7.9653759003

> <CNN_VS>
5.9720597267

> <CNNaffinity_variance>
0.1123437509

$$$$
