
     RDKit          3D

 57 61  0  0  0  0  0  0  0  0999 V2000
   -1.1575   -2.5218   -3.8444 C   0  0  0  0  0  0  0  0  0  0  0  0
   -0.2262   -2.0433   -2.7606 C   0  0  0  0  0  0  0  0  0  0  0  0
    1.1236   -2.4344   -2.8043 C   0  0  0  0  0  0  0  0  0  0  0  0
    2.0135   -2.0346   -1.8087 C   0  0  0  0  0  0  0  0  0  0  0  0
    1.5608   -1.2213   -0.7686 C   0  0  0  0  0  0  0  0  0  0  0  0
    2.4639   -0.7943    0.3329 C   0  0  0  0  0  0  0  0  0  0  0  0
    2.0172   -0.7920    1.4733 O   0  0  0  0  0  0  0  0  0  0  0  0
    3.7311   -0.4194   -0.0735 N   0  0  0  0  0  0  0  0  0  0  0  0
    4.8038   -0.0067    0.7439 C   0  0  0  0  0  0  0  0  0  0  0  0
    4.7535    0.0325    2.1373 C   0  0  0  0  0  0  0  0  0  0  0  0
    5.8644    0.4486    2.8770 C   0  0  0  0  0  0  0  0  0  0  0  0
    7.0394    0.8272    2.2301 C   0  0  0  0  0  0  0  0  0  0  0  0
    7.1145    0.7936    0.8328 C   0  0  0  0  0  0  0  0  0  0  0  0
    8.3732    1.1941    0.1058 C   0  0  0  0  0  0  0  0  0  0  0  0
    8.8737    0.1819   -0.6566 F   0  0  0  0  0  0  0  0  0  0  0  0
    9.3868    1.5776    0.9299 F   0  0  0  0  0  0  0  0  0  0  0  0
    8.1701    2.2356   -0.7481 F   0  0  0  0  0  0  0  0  0  0  0  0
    5.9885    0.3750    0.1001 C   0  0  0  0  0  0  0  0  0  0  0  0
    0.2189   -0.8246   -0.7197 C   0  0  0  0  0  0  0  0  0  0  0  0
   -0.6934   -1.2297   -1.7031 C   0  0  0  0  0  0  0  0  0  0  0  0
   -2.0570   -0.8694   -1.6593 N   0  0  0  0  0  0  0  0  0  0  0  0
   -2.8201   -0.3161   -0.6275 C   0  0  0  0  0  0  0  0  0  0  0  0
   -3.7295    0.6497   -0.9490 N   0  0  0  0  0  0  0  0  0  0  0  0
   -4.5208    1.2288    0.0222 C   0  0  0  0  0  0  0  0  0  0  0  0
   -5.4511    2.2756   -0.4450 C   0  0  0  0  0  0  0  0  0  0  0  0
   -6.3226    2.9570    0.4211 C   0  0  0  0  0  0  0  0  0  0  0  0
   -7.1881    3.9395   -0.0606 C   0  0  0  0  0  0  0  0  0  0  0  0
   -7.1665    4.2261   -1.4128 C   0  0  0  0  0  0  0  0  0  0  0  0
   -6.3533    3.6069   -2.2911 N   0  0  0  0  0  0  0  0  0  0  0  0
   -5.5236    2.6555   -1.7865 C   0  0  0  0  0  0  0  0  0  0  0  0
   -4.5542    0.9543    1.3541 N   0  0  0  0  0  0  0  0  0  0  0  0
   -3.6890   -0.0258    1.6861 C   0  0  0  0  0  0  0  0  0  0  0  0
   -3.5038   -0.5460    2.9022 N   0  0  0  0  0  0  0  0  0  0  0  0
   -2.5638   -1.4945    2.7035 N   0  0  0  0  0  0  0  0  0  0  0  0
   -2.0856   -2.2622    3.8288 C   0  0  0  0  0  0  0  0  0  0  0  0
   -2.1664   -1.6227    1.4011 C   0  0  0  0  0  0  0  0  0  0  0  0
   -2.8515   -0.6447    0.7270 C   0  0  0  0  0  0  0  0  0  0  0  0
   -1.5303   -1.6718   -4.4244 H   0  0  0  0  0  0  0  0  0  0  0  0
   -0.6518   -3.2013   -4.5386 H   0  0  0  0  0  0  0  0  0  0  0  0
   -2.0011   -3.0671   -3.4094 H   0  0  0  0  0  0  0  0  0  0  0  0
    1.4829   -3.0742   -3.6085 H   0  0  0  0  0  0  0  0  0  0  0  0
    3.0399   -2.3899   -1.8405 H   0  0  0  0  0  0  0  0  0  0  0  0
    3.8973   -0.3824   -1.0711 H   0  0  0  0  0  0  0  0  0  0  0  0
    3.8609   -0.2558    2.6847 H   0  0  0  0  0  0  0  0  0  0  0  0
    5.8067    0.4752    3.9629 H   0  0  0  0  0  0  0  0  0  0  0  0
    7.8946    1.1478    2.8233 H   0  0  0  0  0  0  0  0  0  0  0  0
    6.0535    0.3523   -0.9867 H   0  0  0  0  0  0  0  0  0  0  0  0
   -0.0967   -0.1772    0.0953 H   0  0  0  0  0  0  0  0  0  0  0  0
   -2.3700   -0.4641   -2.5371 H   0  0  0  0  0  0  0  0  0  0  0  0
   -6.3328    2.7245    1.4850 H   0  0  0  0  0  0  0  0  0  0  0  0
   -7.8609    4.4652    0.6076 H   0  0  0  0  0  0  0  0  0  0  0  0
   -7.8207    4.9820   -1.8371 H   0  0  0  0  0  0  0  0  0  0  0  0
   -4.8900    2.1886   -2.5376 H   0  0  0  0  0  0  0  0  0  0  0  0
   -1.6411   -1.5729    4.5510 H   0  0  0  0  0  0  0  0  0  0  0  0
   -2.9343   -2.7900    4.2708 H   0  0  0  0  0  0  0  0  0  0  0  0
   -1.3356   -2.9798    3.4873 H   0  0  0  0  0  0  0  0  0  0  0  0
   -1.4436   -2.3649    1.0930 H   0  0  0  0  0  0  0  0  0  0  0  0
  1  2  1  0
  2  3  1  0
  3  4  2  0
  4  5  1  0
  5  6  1  0
  6  7  2  0
  6  8  1  0
  8  9  1  0
  9 10  1  0
 10 11  2  0
 11 12  1  0
 12 13  2  0
 13 14  1  0
 14 15  1  0
 14 16  1  0
 14 17  1  0
 13 18  1  0
  5 19  2  0
 19 20  1  0
 20 21  1  0
 21 22  1  0
 22 23  2  0
 23 24  1  0
 24 25  1  0
 25 26  1  0
 26 27  2  0
 27 28  1  0
 28 29  2  0
 29 30  1  0
 24 31  2  0
 31 32  1  0
 32 33  2  0
 33 34  1  0
 34 35  1  0
 34 36  1  0
 36 37  2  0
 20  2  2  0
 37 22  1  0
 18  9  2  0
 30 25  2  0
 37 32  1  0
  1 38  1  0
  1 39  1  0
  1 40  1  0
  3 41  1  0
  4 42  1  0
  8 43  1  0
 10 44  1  0
 11 45  1  0
 12 46  1  0
 18 47  1  0
 19 48  1  0
 21 49  1  0
 26 50  1  0
 27 51  1  0
 28 52  1  0
 30 53  1  0
 35 54  1  0
 35 55  1  0
 35 56  1  0
 36 57  1  0
M  END
$$$$
