FYN_saracatinib__vina_seed8831_ex64__pose01
     RDKit          3D

 72 77  0  0  0  0  0  0  0  0999 V2000
   -9.3220   13.7690   -0.1460 C   0  0  0  0  0  0  0  0  0  0  0  0
   -8.5700   13.7870   -1.3890 N   0  0  0  0  0  0  0  0  0  0  0  0
   -9.3930   13.3000   -2.4810 C   0  0  0  0  0  0  0  0  0  0  0  0
   -8.6530   13.3640   -3.8250 C   0  0  0  0  0  0  0  0  0  0  0  0
   -8.1790   14.7090   -4.1350 N   0  0  0  0  0  0  0  0  0  0  0  0
   -7.4320   14.6730   -5.3870 C   0  0  0  0  0  0  0  0  0  0  0  0
   -7.8750   15.6660   -6.4750 C   0  0  0  0  0  0  0  0  0  0  0  0
   -9.2220   16.0510   -6.3340 O   0  0  0  0  0  0  0  0  0  0  0  0
  -10.0190   15.8530   -7.4340 C   0  0  0  0  0  0  0  0  0  0  0  0
  -11.1090   16.5900   -7.6790 C   0  0  0  0  0  0  0  0  0  0  0  0
  -11.8760   16.3710   -8.7560 C   0  0  0  0  0  0  0  0  0  0  0  0
  -11.6050   15.3910   -9.6640 C   0  0  0  0  0  0  0  0  0  0  0  0
  -10.5030   14.6240   -9.4320 C   0  0  0  0  0  0  0  0  0  0  0  0
  -10.1240   13.6150  -10.2980 O   0  0  0  0  0  0  0  0  0  0  0  0
  -10.0450   12.2650   -9.9100 C   0  0  0  0  0  0  0  0  0  0  0  0
  -11.1000   11.8640   -8.8780 C   0  0  0  0  0  0  0  0  0  0  0  0
  -11.2100   10.3470   -8.7640 C   0  0  0  0  0  0  0  0  0  0  0  0
  -11.4920    9.7700  -10.0160 O   0  0  0  0  0  0  0  0  0  0  0  0
  -10.4170    9.9640  -10.8950 C   0  0  0  0  0  0  0  0  0  0  0  0
  -10.2580   11.4500  -11.1960 C   0  0  0  0  0  0  0  0  0  0  0  0
   -9.7570   14.8880   -8.3350 C   0  0  0  0  0  0  0  0  0  0  0  0
  -12.4650   15.2820  -10.7170 C   0  0  0  0  0  0  0  0  0  0  0  0
  -12.5370   14.4990  -11.7300 N   0  0  0  0  0  0  0  0  0  0  0  0
  -13.4170   14.1320  -12.5840 C   0  0  0  0  0  0  0  0  0  0  0  0
  -14.1510   13.0040  -12.3640 C   0  0  0  0  0  0  0  0  0  0  0  0
  -13.9790   11.9920  -10.9580 Cl  0  0  0  0  0  0  0  0  0  0  0  0
  -15.0940   12.6000  -13.2370 C   0  0  0  0  0  0  0  0  0  0  0  0
  -15.3460   13.2790  -14.3640 C   0  0  0  0  0  0  0  0  0  0  0  0
  -14.6290   14.3830  -14.5950 C   0  0  0  0  0  0  0  0  0  0  0  0
  -13.6920   14.7940  -13.7310 C   0  0  0  0  0  0  0  0  0  0  0  0
  -13.1660   15.8270  -14.1520 O   0  0  0  0  0  0  0  0  0  0  0  0
  -13.7210   16.1330  -15.4300 C   0  0  0  0  0  0  0  0  0  0  0  0
  -14.7170   15.1270  -15.5700 O   0  0  0  0  0  0  0  0  0  0  0  0
  -13.4510   16.0920  -10.7620 N   0  0  0  0  0  0  0  0  0  0  0  0
  -13.6140   16.9650   -9.8650 C   0  0  0  0  0  0  0  0  0  0  0  0
  -12.8740   17.1440   -8.8640 N   0  0  0  0  0  0  0  0  0  0  0  0
   -7.3490   15.1640   -3.0290 C   0  0  0  0  0  0  0  0  0  0  0  0
   -8.1090   15.1310   -1.6890 C   0  0  0  0  0  0  0  0  0  0  0  0
   -8.6248   13.7857    0.7046 H   0  0  0  0  0  0  0  0  0  0  0  0
   -9.9768   14.6517   -0.1008 H   0  0  0  0  0  0  0  0  0  0  0  0
   -9.9338   12.8560   -0.1008 H   0  0  0  0  0  0  0  0  0  0  0  0
   -9.6727   12.2557   -2.2779 H   0  0  0  0  0  0  0  0  0  0  0  0
  -10.2839   13.9415   -2.5502 H   0  0  0  0  0  0  0  0  0  0  0  0
   -7.7884   12.6851   -3.7850 H   0  0  0  0  0  0  0  0  0  0  0  0
   -9.3615   13.0680   -4.6127 H   0  0  0  0  0  0  0  0  0  0  0  0
   -6.3772   14.8803   -5.1537 H   0  0  0  0  0  0  0  0  0  0  0  0
   -7.6166   13.6743   -5.8094 H   0  0  0  0  0  0  0  0  0  0  0  0
   -7.2426   16.5638   -6.4125 H   0  0  0  0  0  0  0  0  0  0  0  0
   -7.7694   15.1656   -7.4489 H   0  0  0  0  0  0  0  0  0  0  0  0
  -11.3817   17.3944   -6.9800 H   0  0  0  0  0  0  0  0  0  0  0  0
   -9.0729   12.0812   -9.4292 H   0  0  0  0  0  0  0  0  0  0  0  0
  -10.8195   12.2782   -7.8983 H   0  0  0  0  0  0  0  0  0  0  0  0
  -12.0734   12.2609   -9.2021 H   0  0  0  0  0  0  0  0  0  0  0  0
  -10.2583    9.9439   -8.3875 H   0  0  0  0  0  0  0  0  0  0  0  0
  -12.0298   10.1044   -8.0718 H   0  0  0  0  0  0  0  0  0  0  0  0
   -9.4940    9.5842  -10.4326 H   0  0  0  0  0  0  0  0  0  0  0  0
  -10.6119    9.4223  -11.8323 H   0  0  0  0  0  0  0  0  0  0  0  0
   -9.3893   11.5902  -11.8561 H   0  0  0  0  0  0  0  0  0  0  0  0
  -11.1793   11.8047  -11.6811 H   0  0  0  0  0  0  0  0  0  0  0  0
   -8.8662   14.2651   -8.1659 H   0  0  0  0  0  0  0  0  0  0  0  0
  -11.8412   15.9768  -11.2984 H   0  0  0  0  0  0  0  0  0  0  0  0
  -11.6200   14.0170  -11.9240 H   0  0  0  0  0  0  0  0  0  0  0  0
  -15.6717   11.6896  -13.0190 H   0  0  0  0  0  0  0  0  0  0  0  0
  -16.1152   12.9402  -15.0736 H   0  0  0  0  0  0  0  0  0  0  0  0
  -14.1652   17.1393  -15.4420 H   0  0  0  0  0  0  0  0  0  0  0  0
  -12.9812   16.1401  -16.2440 H   0  0  0  0  0  0  0  0  0  0  0  0
  -14.4836   17.6307   -9.9684 H   0  0  0  0  0  0  0  0  0  0  0  0
  -13.0610   17.8460   -8.1990 H   0  0  0  0  0  0  0  0  0  0  0  0
   -6.4672   14.5107   -2.9539 H   0  0  0  0  0  0  0  0  0  0  0  0
   -7.0553   16.2051   -3.2289 H   0  0  0  0  0  0  0  0  0  0  0  0
   -7.4381   15.4695   -0.8857 H   0  0  0  0  0  0  0  0  0  0  0  0
   -8.9832   15.7945   -1.7637 H   0  0  0  0  0  0  0  0  0  0  0  0
  1  2  1  0
  2  3  1  0
  3  4  1  0
  4  5  1  0
  5  6  1  0
  6  7  1  0
  7  8  1  0
  8  9  1  0
  9 10  2  0
 10 11  1  0
 11 12  2  0
 12 13  1  0
 13 14  1  0
 14 15  1  0
 15 16  1  0
 16 17  1  0
 17 18  1  0
 18 19  1  0
 19 20  1  0
 13 21  2  0
 12 22  1  0
 22 23  1  0
 23 24  1  0
 24 25  2  0
 25 26  1  0
 25 27  1  0
 27 28  2  0
 28 29  1  0
 29 30  2  0
 30 31  1  0
 31 32  1  0
 32 33  1  0
 22 34  1  0
 34 35  2  0
 35 36  1  0
  5 37  1  0
 37 38  1  0
 38  2  1  0
 21  9  1  0
 30 24  1  0
 36 11  1  0
 20 15  1  0
 33 29  1  0
  1 39  1  0
  1 40  1  0
  1 41  1  0
  3 42  1  0
  3 43  1  0
  4 44  1  0
  4 45  1  0
  6 46  1  0
  6 47  1  0
  7 48  1  0
  7 49  1  0
 10 50  1  0
 15 51  1  0
 16 52  1  0
 16 53  1  0
 17 54  1  0
 17 55  1  0
 19 56  1  0
 19 57  1  0
 20 58  1  0
 20 59  1  0
 21 60  1  0
 22 61  1  0
 23 62  1  0
 27 63  1  0
 28 64  1  0
 32 65  1  0
 32 66  1  0
 35 67  1  0
 36 68  1  0
 37 69  1  0
 37 70  1  0
 38 71  1  0
 38 72  1  0
M  END
>  <meeko>  (1)
{"is_sidechain": false}

>  <source_group>  (1)
FYN canonical

>  <source_system>  (1)
FYN_saracatinib

>  <source_run>  (1)
vina_seed8831_ex64

>  <source_seed>  (1)
8831

>  <vina_pose_rank>  (1)
1

>  <vina_affinity_kcal_mol>  (1)
-9.1999999999999993

>  <vina_rmsd_to_crystal_angstrom>  (1)
1.9778

$$$$
FYN_saracatinib__vina_seed8831_ex64__pose02
     RDKit          3D

 72 77  0  0  0  0  0  0  0  0999 V2000
   -9.2100   13.7520   -0.0750 C   0  0  0  0  0  0  0  0  0  0  0  0
   -8.4880   13.8430   -1.3330 N   0  0  0  0  0  0  0  0  0  0  0  0
   -9.3190   13.3640   -2.4230 C   0  0  0  0  0  0  0  0  0  0  0  0
   -8.6130   13.5040   -3.7800 C   0  0  0  0  0  0  0  0  0  0  0  0
   -8.1960   14.8760   -4.0510 N   0  0  0  0  0  0  0  0  0  0  0  0
   -7.4770   14.9130   -5.3200 C   0  0  0  0  0  0  0  0  0  0  0  0
   -8.0160   15.8890   -6.3800 C   0  0  0  0  0  0  0  0  0  0  0  0
   -9.4010   16.1050   -6.2570 O   0  0  0  0  0  0  0  0  0  0  0  0
  -10.1420   15.9050   -7.3960 C   0  0  0  0  0  0  0  0  0  0  0  0
  -11.2360   16.6190   -7.6810 C   0  0  0  0  0  0  0  0  0  0  0  0
  -11.9470   16.3980   -8.7960 C   0  0  0  0  0  0  0  0  0  0  0  0
  -11.6110   15.4390   -9.7030 C   0  0  0  0  0  0  0  0  0  0  0  0
  -10.5030   14.6950   -9.4310 C   0  0  0  0  0  0  0  0  0  0  0  0
  -10.0610   13.7080  -10.2920 O   0  0  0  0  0  0  0  0  0  0  0  0
   -9.8890   12.3680   -9.8950 C   0  0  0  0  0  0  0  0  0  0  0  0
  -10.9390   11.8910   -8.8910 C   0  0  0  0  0  0  0  0  0  0  0  0
  -10.9370   10.3700   -8.7740 C   0  0  0  0  0  0  0  0  0  0  0  0
  -11.1390    9.7710  -10.0310 O   0  0  0  0  0  0  0  0  0  0  0  0
  -10.0570   10.0430  -10.8800 C   0  0  0  0  0  0  0  0  0  0  0  0
  -10.0040   11.5370  -11.1840 C   0  0  0  0  0  0  0  0  0  0  0  0
   -9.8150   14.9590   -8.2970 C   0  0  0  0  0  0  0  0  0  0  0  0
  -12.4190   15.3250  -10.7960 C   0  0  0  0  0  0  0  0  0  0  0  0
  -12.4250   14.5560  -11.8220 N   0  0  0  0  0  0  0  0  0  0  0  0
  -13.2650   13.8280  -12.4570 C   0  0  0  0  0  0  0  0  0  0  0  0
  -13.7160   14.2190  -13.6820 C   0  0  0  0  0  0  0  0  0  0  0  0
  -13.2170   15.6840  -14.4800 Cl  0  0  0  0  0  0  0  0  0  0  0  0
  -14.5900   13.4670  -14.3810 C   0  0  0  0  0  0  0  0  0  0  0  0
  -15.0610   12.3090  -13.9000 C   0  0  0  0  0  0  0  0  0  0  0  0
  -14.6310   11.9170  -12.6980 C   0  0  0  0  0  0  0  0  0  0  0  0
  -13.7620   12.6560  -11.9970 C   0  0  0  0  0  0  0  0  0  0  0  0
  -13.5120   12.0990  -10.9270 O   0  0  0  0  0  0  0  0  0  0  0  0
  -14.3080   10.9180  -10.8320 C   0  0  0  0  0  0  0  0  0  0  0  0
  -14.9550   10.8920  -12.0990 O   0  0  0  0  0  0  0  0  0  0  0  0
  -13.4210   16.1130  -10.8760 N   0  0  0  0  0  0  0  0  0  0  0  0
  -13.6470   16.9680   -9.9770 C   0  0  0  0  0  0  0  0  0  0  0  0
  -12.9580   17.1490   -8.9390 N   0  0  0  0  0  0  0  0  0  0  0  0
   -7.3580   15.3220   -2.9480 C   0  0  0  0  0  0  0  0  0  0  0  0
   -8.0840   15.2120   -1.5940 C   0  0  0  0  0  0  0  0  0  0  0  0
   -8.5015   13.8413    0.7617 H   0  0  0  0  0  0  0  0  0  0  0  0
   -9.9498   14.5640   -0.0173 H   0  0  0  0  0  0  0  0  0  0  0  0
   -9.7252   12.7818   -0.0173 H   0  0  0  0  0  0  0  0  0  0  0  0
   -9.5550   12.3033   -2.2518 H   0  0  0  0  0  0  0  0  0  0  0  0
  -10.2349   13.9726   -2.4487 H   0  0  0  0  0  0  0  0  0  0  0  0
   -7.7234   12.8571   -3.7838 H   0  0  0  0  0  0  0  0  0  0  0  0
   -9.3283   13.2101   -4.5622 H   0  0  0  0  0  0  0  0  0  0  0  0
   -6.4346   15.1920   -5.1067 H   0  0  0  0  0  0  0  0  0  0  0  0
   -7.5985   13.9102   -5.7555 H   0  0  0  0  0  0  0  0  0  0  0  0
   -7.4972   16.8526   -6.2689 H   0  0  0  0  0  0  0  0  0  0  0  0
   -7.8331   15.4437   -7.3690 H   0  0  0  0  0  0  0  0  0  0  0  0
  -11.5603   17.4061   -6.9844 H   0  0  0  0  0  0  0  0  0  0  0  0
   -8.9197   12.2590   -9.3866 H   0  0  0  0  0  0  0  0  0  0  0  0
  -10.7180   12.3273   -7.9057 H   0  0  0  0  0  0  0  0  0  0  0  0
  -11.9302   12.2127   -9.2432 H   0  0  0  0  0  0  0  0  0  0  0  0
   -9.9685   10.0409   -8.3693 H   0  0  0  0  0  0  0  0  0  0  0  0
  -11.7553   10.0673   -8.1041 H   0  0  0  0  0  0  0  0  0  0  0  0
   -9.1214    9.7364  -10.3895 H   0  0  0  0  0  0  0  0  0  0  0  0
  -10.1821    9.4846  -11.8194 H   0  0  0  0  0  0  0  0  0  0  0  0
   -9.1310   11.7419  -11.8210 H   0  0  0  0  0  0  0  0  0  0  0  0
  -10.9357   11.8194  -11.6961 H   0  0  0  0  0  0  0  0  0  0  0  0
   -8.9188   14.3541   -8.0949 H   0  0  0  0  0  0  0  0  0  0  0  0
  -11.7868   16.0436  -11.3383 H   0  0  0  0  0  0  0  0  0  0  0  0
  -11.4780   14.5000  -12.2810 H   0  0  0  0  0  0  0  0  0  0  0  0
  -14.9243   13.8129  -15.3702 H   0  0  0  0  0  0  0  0  0  0  0  0
  -15.7765   11.7025  -14.4746 H   0  0  0  0  0  0  0  0  0  0  0  0
  -13.6822   10.0254  -10.6849 H   0  0  0  0  0  0  0  0  0  0  0  0
  -15.0035   10.9204   -9.9798 H   0  0  0  0  0  0  0  0  0  0  0  0
  -14.5265   17.6147  -10.1121 H   0  0  0  0  0  0  0  0  0  0  0  0
  -13.1920   17.8380   -8.2740 H   0  0  0  0  0  0  0  0  0  0  0  0
   -6.4509   14.7005   -2.9167 H   0  0  0  0  0  0  0  0  0  0  0  0
   -7.1082   16.3800   -3.1159 H   0  0  0  0  0  0  0  0  0  0  0  0
   -7.4070   15.5465   -0.7941 H   0  0  0  0  0  0  0  0  0  0  0  0
   -8.9837   15.8441   -1.6252 H   0  0  0  0  0  0  0  0  0  0  0  0
  1  2  1  0
  2  3  1  0
  3  4  1  0
  4  5  1  0
  5  6  1  0
  6  7  1  0
  7  8  1  0
  8  9  1  0
  9 10  2  0
 10 11  1  0
 11 12  2  0
 12 13  1  0
 13 14  1  0
 14 15  1  0
 15 16  1  0
 16 17  1  0
 17 18  1  0
 18 19  1  0
 19 20  1  0
 13 21  2  0
 12 22  1  0
 22 23  1  0
 23 24  1  0
 24 25  2  0
 25 26  1  0
 25 27  1  0
 27 28  2  0
 28 29  1  0
 29 30  2  0
 30 31  1  0
 31 32  1  0
 32 33  1  0
 22 34  1  0
 34 35  2  0
 35 36  1  0
  5 37  1  0
 37 38  1  0
 38  2  1  0
 21  9  1  0
 30 24  1  0
 36 11  1  0
 20 15  1  0
 33 29  1  0
  1 39  1  0
  1 40  1  0
  1 41  1  0
  3 42  1  0
  3 43  1  0
  4 44  1  0
  4 45  1  0
  6 46  1  0
  6 47  1  0
  7 48  1  0
  7 49  1  0
 10 50  1  0
 15 51  1  0
 16 52  1  0
 16 53  1  0
 17 54  1  0
 17 55  1  0
 19 56  1  0
 19 57  1  0
 20 58  1  0
 20 59  1  0
 21 60  1  0
 22 61  1  0
 23 62  1  0
 27 63  1  0
 28 64  1  0
 32 65  1  0
 32 66  1  0
 35 67  1  0
 36 68  1  0
 37 69  1  0
 37 70  1  0
 38 71  1  0
 38 72  1  0
M  END
>  <meeko>  (2)
{"is_sidechain": false}

>  <source_group>  (2)
FYN canonical

>  <source_system>  (2)
FYN_saracatinib

>  <source_run>  (2)
vina_seed8831_ex64

>  <source_seed>  (2)
8831

>  <vina_pose_rank>  (2)
2

>  <vina_affinity_kcal_mol>  (2)
-9.0440000000000005

>  <vina_rmsd_to_crystal_angstrom>  (2)
2.7602000000000002

$$$$
FYN_saracatinib__vina_seed8831_ex64__pose03
     RDKit          3D

 72 77  0  0  0  0  0  0  0  0999 V2000
   -7.3430    9.0990   -7.9410 C   0  0  0  0  0  0  0  0  0  0  0  0
   -7.5710   10.4980   -7.6230 N   0  0  0  0  0  0  0  0  0  0  0  0
   -8.8190   10.6510   -6.8970 C   0  0  0  0  0  0  0  0  0  0  0  0
   -9.0640   12.1100   -6.4860 C   0  0  0  0  0  0  0  0  0  0  0  0
   -7.9690   12.6550   -5.6910 N   0  0  0  0  0  0  0  0  0  0  0  0
   -8.2440   14.0580   -5.4000 C   0  0  0  0  0  0  0  0  0  0  0  0
   -8.2510   15.0150   -6.6040 C   0  0  0  0  0  0  0  0  0  0  0  0
   -9.4040   15.8220   -6.6430 O   0  0  0  0  0  0  0  0  0  0  0  0
  -10.2060   15.6650   -7.7470 C   0  0  0  0  0  0  0  0  0  0  0  0
  -11.2850   16.4240   -7.9680 C   0  0  0  0  0  0  0  0  0  0  0  0
  -12.0580   16.2460   -9.0500 C   0  0  0  0  0  0  0  0  0  0  0  0
  -11.8040   15.2870   -9.9830 C   0  0  0  0  0  0  0  0  0  0  0  0
  -10.7140   14.4970   -9.7750 C   0  0  0  0  0  0  0  0  0  0  0  0
  -10.3530   13.5050  -10.6680 O   0  0  0  0  0  0  0  0  0  0  0  0
  -10.3260   12.1410  -10.3250 C   0  0  0  0  0  0  0  0  0  0  0  0
  -11.4430   11.7310   -9.3640 C   0  0  0  0  0  0  0  0  0  0  0  0
  -11.5950   10.2150   -9.3110 C   0  0  0  0  0  0  0  0  0  0  0  0
  -11.8240    9.6890  -10.5960 O   0  0  0  0  0  0  0  0  0  0  0  0
  -10.7000    9.8850  -11.4100 C   0  0  0  0  0  0  0  0  0  0  0  0
  -10.4900   11.3770  -11.6490 C   0  0  0  0  0  0  0  0  0  0  0  0
   -9.9620   14.7200   -8.6730 C   0  0  0  0  0  0  0  0  0  0  0  0
  -12.6690   15.2180  -11.0360 C   0  0  0  0  0  0  0  0  0  0  0  0
  -12.7550   14.4640  -12.0690 N   0  0  0  0  0  0  0  0  0  0  0  0
  -13.6400   14.1390  -12.9350 C   0  0  0  0  0  0  0  0  0  0  0  0
  -14.4210   13.0400  -12.7300 C   0  0  0  0  0  0  0  0  0  0  0  0
  -14.3040   12.0110  -11.3310 Cl  0  0  0  0  0  0  0  0  0  0  0  0
  -15.3710   12.6800  -13.6160 C   0  0  0  0  0  0  0  0  0  0  0  0
  -15.5840   13.3770  -14.7400 C   0  0  0  0  0  0  0  0  0  0  0  0
  -14.8220   14.4530  -14.9550 C   0  0  0  0  0  0  0  0  0  0  0  0
  -13.8770   14.8190  -14.0800 C   0  0  0  0  0  0  0  0  0  0  0  0
  -13.3060   15.8330  -14.4870 O   0  0  0  0  0  0  0  0  0  0  0  0
  -13.8360   16.1710  -15.7680 C   0  0  0  0  0  0  0  0  0  0  0  0
  -14.8700   15.2070  -15.9260 O   0  0  0  0  0  0  0  0  0  0  0  0
  -13.6420   16.0450  -11.0580 N   0  0  0  0  0  0  0  0  0  0  0  0
  -13.7900   16.8960  -10.1380 C   0  0  0  0  0  0  0  0  0  0  0  0
  -13.0450   17.0370   -9.1340 N   0  0  0  0  0  0  0  0  0  0  0  0
   -6.7360   12.4980   -6.4480 C   0  0  0  0  0  0  0  0  0  0  0  0
   -6.4780   11.0270   -6.8270 C   0  0  0  0  0  0  0  0  0  0  0  0
   -7.2489    8.5218   -7.0093 H   0  0  0  0  0  0  0  0  0  0  0  0
   -8.1902    8.7134   -8.5272 H   0  0  0  0  0  0  0  0  0  0  0  0
   -6.4173    9.0024   -8.5272 H   0  0  0  0  0  0  0  0  0  0  0  0
   -9.6477   10.3180   -7.5391 H   0  0  0  0  0  0  0  0  0  0  0  0
   -8.7592   10.0433   -5.9820 H   0  0  0  0  0  0  0  0  0  0  0  0
   -9.1777   12.7188   -7.3951 H   0  0  0  0  0  0  0  0  0  0  0  0
   -9.9731   12.1361   -5.8673 H   0  0  0  0  0  0  0  0  0  0  0  0
   -9.2332   14.1135   -4.9220 H   0  0  0  0  0  0  0  0  0  0  0  0
   -7.4124   14.3939   -4.7632 H   0  0  0  0  0  0  0  0  0  0  0  0
   -7.3664   15.6660   -6.5427 H   0  0  0  0  0  0  0  0  0  0  0  0
   -8.2395   14.4032   -7.5181 H   0  0  0  0  0  0  0  0  0  0  0  0
  -11.5445   17.2123   -7.2460 H   0  0  0  0  0  0  0  0  0  0  0  0
   -9.3852   11.9162   -9.8012 H   0  0  0  0  0  0  0  0  0  0  0  0
  -11.2045   12.1032   -8.3567 H   0  0  0  0  0  0  0  0  0  0  0  0
  -12.3883   12.1638   -9.7233 H   0  0  0  0  0  0  0  0  0  0  0  0
  -10.6745    9.7747   -8.9002 H   0  0  0  0  0  0  0  0  0  0  0  0
  -12.4560    9.9698   -8.6718 H   0  0  0  0  0  0  0  0  0  0  0  0
   -9.8121    9.4659  -10.9139 H   0  0  0  0  0  0  0  0  0  0  0  0
  -10.8575    9.3809  -12.3749 H   0  0  0  0  0  0  0  0  0  0  0  0
   -9.5846   11.5177  -12.2576 H   0  0  0  0  0  0  0  0  0  0  0  0
  -11.3756   11.7718  -12.1684 H   0  0  0  0  0  0  0  0  0  0  0  0
   -9.0816   14.0781   -8.5220 H   0  0  0  0  0  0  0  0  0  0  0  0
  -12.0375   15.9197  -11.6007 H   0  0  0  0  0  0  0  0  0  0  0  0
  -11.8490   13.9670  -12.2740 H   0  0  0  0  0  0  0  0  0  0  0  0
  -15.9867   11.7918  -13.4109 H   0  0  0  0  0  0  0  0  0  0  0  0
  -16.3585   13.0742  -15.4600 H   0  0  0  0  0  0  0  0  0  0  0  0
  -14.2394   17.1943  -15.7759 H   0  0  0  0  0  0  0  0  0  0  0  0
  -13.0884   16.1547  -16.5748 H   0  0  0  0  0  0  0  0  0  0  0  0
  -14.6496   17.5773  -10.2216 H   0  0  0  0  0  0  0  0  0  0  0  0
  -13.2190   17.7250   -8.4510 H   0  0  0  0  0  0  0  0  0  0  0  0
   -6.8055   13.0956   -7.3689 H   0  0  0  0  0  0  0  0  0  0  0  0
   -5.9024   12.8386   -5.8163 H   0  0  0  0  0  0  0  0  0  0  0  0
   -5.5458   10.9627   -7.4073 H   0  0  0  0  0  0  0  0  0  0  0  0
   -6.3970   10.4350   -5.9034 H   0  0  0  0  0  0  0  0  0  0  0  0
  1  2  1  0
  2  3  1  0
  3  4  1  0
  4  5  1  0
  5  6  1  0
  6  7  1  0
  7  8  1  0
  8  9  1  0
  9 10  2  0
 10 11  1  0
 11 12  2  0
 12 13  1  0
 13 14  1  0
 14 15  1  0
 15 16  1  0
 16 17  1  0
 17 18  1  0
 18 19  1  0
 19 20  1  0
 13 21  2  0
 12 22  1  0
 22 23  1  0
 23 24  1  0
 24 25  2  0
 25 26  1  0
 25 27  1  0
 27 28  2  0
 28 29  1  0
 29 30  2  0
 30 31  1  0
 31 32  1  0
 32 33  1  0
 22 34  1  0
 34 35  2  0
 35 36  1  0
  5 37  1  0
 37 38  1  0
 38  2  1  0
 21  9  1  0
 30 24  1  0
 36 11  1  0
 20 15  1  0
 33 29  1  0
  1 39  1  0
  1 40  1  0
  1 41  1  0
  3 42  1  0
  3 43  1  0
  4 44  1  0
  4 45  1  0
  6 46  1  0
  6 47  1  0
  7 48  1  0
  7 49  1  0
 10 50  1  0
 15 51  1  0
 16 52  1  0
 16 53  1  0
 17 54  1  0
 17 55  1  0
 19 56  1  0
 19 57  1  0
 20 58  1  0
 20 59  1  0
 21 60  1  0
 22 61  1  0
 23 62  1  0
 27 63  1  0
 28 64  1  0
 32 65  1  0
 32 66  1  0
 35 67  1  0
 36 68  1  0
 37 69  1  0
 37 70  1  0
 38 71  1  0
 38 72  1  0
M  END
>  <meeko>  (3)
{"is_sidechain": false}

>  <source_group>  (3)
FYN canonical

>  <source_system>  (3)
FYN_saracatinib

>  <source_run>  (3)
vina_seed8831_ex64

>  <source_seed>  (3)
8831

>  <vina_pose_rank>  (3)
3

>  <vina_affinity_kcal_mol>  (3)
-8.9139999999999997

>  <vina_rmsd_to_crystal_angstrom>  (3)
3.3902000000000001

$$$$
FYN_saracatinib__vina_seed8831_ex64__pose04
     RDKit          3D

 72 77  0  0  0  0  0  0  0  0999 V2000
   -8.3940   18.6840   -4.5370 C   0  0  0  0  0  0  0  0  0  0  0  0
   -7.9350   17.3250   -4.7640 N   0  0  0  0  0  0  0  0  0  0  0  0
   -8.5810   16.4160   -3.8340 C   0  0  0  0  0  0  0  0  0  0  0  0
   -8.1700   14.9580   -4.0850 C   0  0  0  0  0  0  0  0  0  0  0  0
   -8.4430   14.5300   -5.4530 N   0  0  0  0  0  0  0  0  0  0  0  0
   -7.9640   13.1630   -5.6290 C   0  0  0  0  0  0  0  0  0  0  0  0
   -8.7800   12.2720   -6.5800 C   0  0  0  0  0  0  0  0  0  0  0  0
  -10.1560   12.5690   -6.5470 O   0  0  0  0  0  0  0  0  0  0  0  0
  -10.7060   12.9930   -7.7320 C   0  0  0  0  0  0  0  0  0  0  0  0
  -11.1640   14.2370   -7.9110 C   0  0  0  0  0  0  0  0  0  0  0  0
  -11.7040   14.6240   -9.0760 C   0  0  0  0  0  0  0  0  0  0  0  0
  -11.8280   13.7860  -10.1430 C   0  0  0  0  0  0  0  0  0  0  0  0
  -11.3740   12.5120   -9.9810 C   0  0  0  0  0  0  0  0  0  0  0  0
  -11.4320   11.5830  -11.0040 O   0  0  0  0  0  0  0  0  0  0  0  0
  -10.8890   10.2900  -10.8940 C   0  0  0  0  0  0  0  0  0  0  0  0
  -11.8980    9.1780  -11.1850 C   0  0  0  0  0  0  0  0  0  0  0  0
  -11.1960    7.8430  -11.4100 C   0  0  0  0  0  0  0  0  0  0  0  0
  -10.2500    7.9430  -12.4470 O   0  0  0  0  0  0  0  0  0  0  0  0
   -9.2120    8.8100  -12.0780 C   0  0  0  0  0  0  0  0  0  0  0  0
   -9.7530   10.2280  -11.9280 C   0  0  0  0  0  0  0  0  0  0  0  0
  -10.8310   12.1700   -8.7900 C   0  0  0  0  0  0  0  0  0  0  0  0
  -12.3920   14.3120  -11.2680 C   0  0  0  0  0  0  0  0  0  0  0  0
  -12.6720   13.8400  -12.4260 N   0  0  0  0  0  0  0  0  0  0  0  0
  -13.6830   13.7890  -13.2110 C   0  0  0  0  0  0  0  0  0  0  0  0
  -14.6450   12.8420  -13.0200 C   0  0  0  0  0  0  0  0  0  0  0  0
  -14.6050   11.6570  -11.7460 Cl  0  0  0  0  0  0  0  0  0  0  0  0
  -15.7270   12.7720  -13.8200 C   0  0  0  0  0  0  0  0  0  0  0  0
  -15.9020   13.6200  -14.8420 C   0  0  0  0  0  0  0  0  0  0  0  0
  -14.9630   14.5490  -15.0430 C   0  0  0  0  0  0  0  0  0  0  0  0
  -13.8860   14.6280  -14.2520 C   0  0  0  0  0  0  0  0  0  0  0  0
  -13.1640   15.5550  -14.6260 O   0  0  0  0  0  0  0  0  0  0  0  0
  -13.7350   16.1300  -15.8010 C   0  0  0  0  0  0  0  0  0  0  0  0
  -14.9520   15.4040  -15.9270 O   0  0  0  0  0  0  0  0  0  0  0  0
  -12.7630   15.5320  -11.2280 N   0  0  0  0  0  0  0  0  0  0  0  0
  -12.6060   16.2240  -10.1850 C   0  0  0  0  0  0  0  0  0  0  0  0
  -12.0950   15.8290   -9.1050 N   0  0  0  0  0  0  0  0  0  0  0  0
   -7.7750   15.4520   -6.3600 C   0  0  0  0  0  0  0  0  0  0  0  0
   -8.2190   16.9090   -6.1260 C   0  0  0  0  0  0  0  0  0  0  0  0
   -8.4580   18.8735   -3.4553 H   0  0  0  0  0  0  0  0  0  0  0  0
   -7.6849   19.3913   -4.9919 H   0  0  0  0  0  0  0  0  0  0  0  0
   -9.3867   18.8165   -4.9919 H   0  0  0  0  0  0  0  0  0  0  0  0
   -8.2973   16.6946   -2.8084 H   0  0  0  0  0  0  0  0  0  0  0  0
   -9.6687   16.4948   -3.9780 H   0  0  0  0  0  0  0  0  0  0  0  0
   -7.0918   14.8568   -3.8919 H   0  0  0  0  0  0  0  0  0  0  0  0
   -8.7622   14.3221   -3.4105 H   0  0  0  0  0  0  0  0  0  0  0  0
   -6.9365   13.2155   -6.0181 H   0  0  0  0  0  0  0  0  0  0  0  0
   -8.0514   12.6920   -4.6388 H   0  0  0  0  0  0  0  0  0  0  0  0
   -8.4114   12.4200   -7.6058 H   0  0  0  0  0  0  0  0  0  0  0  0
   -8.6544   11.2294   -6.2525 H   0  0  0  0  0  0  0  0  0  0  0  0
  -11.0962   14.9590   -7.0839 H   0  0  0  0  0  0  0  0  0  0  0  0
  -10.5520   10.1232   -9.8603 H   0  0  0  0  0  0  0  0  0  0  0  0
  -12.5842    9.0833  -10.3305 H   0  0  0  0  0  0  0  0  0  0  0  0
  -12.4514    9.4395  -12.0990 H   0  0  0  0  0  0  0  0  0  0  0  0
  -10.6845    7.5441  -10.4832 H   0  0  0  0  0  0  0  0  0  0  0  0
  -11.9491    7.0923  -11.6917 H   0  0  0  0  0  0  0  0  0  0  0  0
   -8.7829    8.4795  -11.1206 H   0  0  0  0  0  0  0  0  0  0  0  0
   -8.4345    8.7980  -12.8560 H   0  0  0  0  0  0  0  0  0  0  0  0
   -8.9367   10.8897  -11.6026 H   0  0  0  0  0  0  0  0  0  0  0  0
  -10.1531   10.5499  -12.9008 H   0  0  0  0  0  0  0  0  0  0  0  0
  -10.4631   11.1395   -8.6774 H   0  0  0  0  0  0  0  0  0  0  0  0
  -11.3959   14.6074  -11.6293 H   0  0  0  0  0  0  0  0  0  0  0  0
  -11.8470   13.3560  -12.8680 H   0  0  0  0  0  0  0  0  0  0  0  0
  -16.4858   11.9989  -13.6290 H   0  0  0  0  0  0  0  0  0  0  0  0
  -16.7868   13.5539  -15.4923 H   0  0  0  0  0  0  0  0  0  0  0  0
  -13.9236   17.2055  -15.6680 H   0  0  0  0  0  0  0  0  0  0  0  0
  -13.0861   16.0631  -16.6867 H   0  0  0  0  0  0  0  0  0  0  0  0
  -12.9472   17.2690  -10.2231 H   0  0  0  0  0  0  0  0  0  0  0  0
  -12.0020   16.4240   -8.3260 H   0  0  0  0  0  0  0  0  0  0  0  0
   -6.6886   15.3814   -6.2028 H   0  0  0  0  0  0  0  0  0  0  0  0
   -8.0449   15.1739   -7.3895 H   0  0  0  0  0  0  0  0  0  0  0  0
   -7.6791   17.5664   -6.8233 H   0  0  0  0  0  0  0  0  0  0  0  0
   -9.3037   16.9773   -6.2953 H   0  0  0  0  0  0  0  0  0  0  0  0
  1  2  1  0
  2  3  1  0
  3  4  1  0
  4  5  1  0
  5  6  1  0
  6  7  1  0
  7  8  1  0
  8  9  1  0
  9 10  2  0
 10 11  1  0
 11 12  2  0
 12 13  1  0
 13 14  1  0
 14 15  1  0
 15 16  1  0
 16 17  1  0
 17 18  1  0
 18 19  1  0
 19 20  1  0
 13 21  2  0
 12 22  1  0
 22 23  1  0
 23 24  1  0
 24 25  2  0
 25 26  1  0
 25 27  1  0
 27 28  2  0
 28 29  1  0
 29 30  2  0
 30 31  1  0
 31 32  1  0
 32 33  1  0
 22 34  1  0
 34 35  2  0
 35 36  1  0
  5 37  1  0
 37 38  1  0
 38  2  1  0
 21  9  1  0
 30 24  1  0
 36 11  1  0
 20 15  1  0
 33 29  1  0
  1 39  1  0
  1 40  1  0
  1 41  1  0
  3 42  1  0
  3 43  1  0
  4 44  1  0
  4 45  1  0
  6 46  1  0
  6 47  1  0
  7 48  1  0
  7 49  1  0
 10 50  1  0
 15 51  1  0
 16 52  1  0
 16 53  1  0
 17 54  1  0
 17 55  1  0
 19 56  1  0
 19 57  1  0
 20 58  1  0
 20 59  1  0
 21 60  1  0
 22 61  1  0
 23 62  1  0
 27 63  1  0
 28 64  1  0
 32 65  1  0
 32 66  1  0
 35 67  1  0
 36 68  1  0
 37 69  1  0
 37 70  1  0
 38 71  1  0
 38 72  1  0
M  END
>  <meeko>  (4)
{"is_sidechain": false}

>  <source_group>  (4)
FYN canonical

>  <source_system>  (4)
FYN_saracatinib

>  <source_run>  (4)
vina_seed8831_ex64

>  <source_seed>  (4)
8831

>  <vina_pose_rank>  (4)
4

>  <vina_affinity_kcal_mol>  (4)
-8.875

>  <vina_rmsd_to_crystal_angstrom>  (4)
2.8182999999999998

$$$$
FYN_saracatinib__vina_seed8831_ex64__pose05
     RDKit          3D

 72 77  0  0  0  0  0  0  0  0999 V2000
   -9.3890    9.0000   -9.8490 C   0  0  0  0  0  0  0  0  0  0  0  0
   -9.5660   10.3720   -9.4050 N   0  0  0  0  0  0  0  0  0  0  0  0
  -10.6160   10.4440   -8.4040 C   0  0  0  0  0  0  0  0  0  0  0  0
  -10.7910   11.8700   -7.8630 C   0  0  0  0  0  0  0  0  0  0  0  0
   -9.5520   12.4100   -7.3100 N   0  0  0  0  0  0  0  0  0  0  0  0
   -9.7830   13.7860   -6.8820 C   0  0  0  0  0  0  0  0  0  0  0  0
   -9.4170   14.8850   -7.8940 C   0  0  0  0  0  0  0  0  0  0  0  0
  -10.4190   15.8670   -8.0070 O   0  0  0  0  0  0  0  0  0  0  0  0
  -11.3220   15.6860   -9.0260 C   0  0  0  0  0  0  0  0  0  0  0  0
  -12.3830   16.4820   -9.2010 C   0  0  0  0  0  0  0  0  0  0  0  0
  -13.2540   16.2790  -10.2000 C   0  0  0  0  0  0  0  0  0  0  0  0
  -13.1250   15.2570  -11.0910 C   0  0  0  0  0  0  0  0  0  0  0  0
  -12.0560   14.4290  -10.9290 C   0  0  0  0  0  0  0  0  0  0  0  0
  -11.8170   13.3720  -11.7870 O   0  0  0  0  0  0  0  0  0  0  0  0
  -11.9470   12.0270  -11.3970 C   0  0  0  0  0  0  0  0  0  0  0  0
  -13.2970   11.7050  -10.7550 C   0  0  0  0  0  0  0  0  0  0  0  0
  -13.5290   10.2000  -10.6860 C   0  0  0  0  0  0  0  0  0  0  0  0
  -13.4330    9.6190  -11.9640 O   0  0  0  0  0  0  0  0  0  0  0  0
  -12.1250    9.7340  -12.4550 C   0  0  0  0  0  0  0  0  0  0  0  0
  -11.7890   11.2040  -12.6860 C   0  0  0  0  0  0  0  0  0  0  0  0
  -11.2000   14.6790   -9.9110 C   0  0  0  0  0  0  0  0  0  0  0  0
  -14.0810   15.1700  -12.0610 C   0  0  0  0  0  0  0  0  0  0  0  0
  -14.2890   14.3630  -13.0350 N   0  0  0  0  0  0  0  0  0  0  0  0
  -14.6710   14.4280  -14.2550 C   0  0  0  0  0  0  0  0  0  0  0  0
  -13.9470   15.1500  -15.1570 C   0  0  0  0  0  0  0  0  0  0  0  0
  -12.4910   16.0180  -14.7640 Cl  0  0  0  0  0  0  0  0  0  0  0  0
  -14.3150   15.2260  -16.4510 C   0  0  0  0  0  0  0  0  0  0  0  0
  -15.4120   14.6050  -16.9080 C   0  0  0  0  0  0  0  0  0  0  0  0
  -16.1330   13.9000  -16.0320 C   0  0  0  0  0  0  0  0  0  0  0  0
  -15.7740   13.8170  -14.7450 C   0  0  0  0  0  0  0  0  0  0  0  0
  -16.5840   13.1170  -14.1330 O   0  0  0  0  0  0  0  0  0  0  0  0
  -17.6240   12.7320  -15.0320 C   0  0  0  0  0  0  0  0  0  0  0  0
  -17.1640   13.2710  -16.2660 O   0  0  0  0  0  0  0  0  0  0  0  0
  -15.0150   16.0400  -12.0490 N   0  0  0  0  0  0  0  0  0  0  0  0
  -15.0460   16.9480  -11.1740 C   0  0  0  0  0  0  0  0  0  0  0  0
  -14.2100   17.1100  -10.2480 N   0  0  0  0  0  0  0  0  0  0  0  0
   -8.5250   12.3350   -8.3380 C   0  0  0  0  0  0  0  0  0  0  0  0
   -8.3310   10.8950   -8.8520 C   0  0  0  0  0  0  0  0  0  0  0  0
   -9.3038    8.3394   -8.9736 H   0  0  0  0  0  0  0  0  0  0  0  0
  -10.2554    8.6960  -10.4548 H   0  0  0  0  0  0  0  0  0  0  0  0
   -8.4738    8.9258  -10.4548 H   0  0  0  0  0  0  0  0  0  0  0  0
  -11.5632   10.1164   -8.8573 H   0  0  0  0  0  0  0  0  0  0  0  0
  -10.3333    9.7920   -7.5644 H   0  0  0  0  0  0  0  0  0  0  0  0
  -11.1250   12.5212   -8.6842 H   0  0  0  0  0  0  0  0  0  0  0  0
  -11.5330   11.8330   -7.0518 H   0  0  0  0  0  0  0  0  0  0  0  0
  -10.8528   13.8890   -6.6477 H   0  0  0  0  0  0  0  0  0  0  0  0
   -9.1130   13.9426   -6.0238 H   0  0  0  0  0  0  0  0  0  0  0  0
   -8.4841   15.3683   -7.5683 H   0  0  0  0  0  0  0  0  0  0  0  0
   -9.3023   14.4087   -8.8789 H   0  0  0  0  0  0  0  0  0  0  0  0
  -12.5445   17.3221   -8.5096 H   0  0  0  0  0  0  0  0  0  0  0  0
  -11.1911   11.7957  -10.6321 H   0  0  0  0  0  0  0  0  0  0  0  0
  -13.3175   12.1184   -9.7358 H   0  0  0  0  0  0  0  0  0  0  0  0
  -14.0913   12.1522  -11.3707 H   0  0  0  0  0  0  0  0  0  0  0  0
  -12.7725    9.7486  -10.0272 H   0  0  0  0  0  0  0  0  0  0  0  0
  -14.5394   10.0174  -10.2915 H   0  0  0  0  0  0  0  0  0  0  0  0
  -11.4215    9.3088  -11.7241 H   0  0  0  0  0  0  0  0  0  0  0  0
  -12.0442    9.1883  -13.4067 H   0  0  0  0  0  0  0  0  0  0  0  0
  -10.7488   11.2824  -13.0350 H   0  0  0  0  0  0  0  0  0  0  0  0
  -12.4853   11.6033  -13.4381 H   0  0  0  0  0  0  0  0  0  0  0  0
  -10.3368   14.0066   -9.7979 H   0  0  0  0  0  0  0  0  0  0  0  0
  -13.4715   15.8069  -12.7189 H   0  0  0  0  0  0  0  0  0  0  0  0
  -14.0950   13.3620  -12.7690 H   0  0  0  0  0  0  0  0  0  0  0  0
  -13.7001   15.8121  -17.1499 H   0  0  0  0  0  0  0  0  0  0  0  0
  -15.7073   14.6736  -17.9654 H   0  0  0  0  0  0  0  0  0  0  0  0
  -17.7211   11.6376  -15.0855 H   0  0  0  0  0  0  0  0  0  0  0  0
  -18.6209   13.0905  -14.7360 H   0  0  0  0  0  0  0  0  0  0  0  0
  -15.8800   17.6634  -11.2253 H   0  0  0  0  0  0  0  0  0  0  0  0
  -14.2940   17.8430   -9.5950 H   0  0  0  0  0  0  0  0  0  0  0  0
   -8.8184   12.9772   -9.1815 H   0  0  0  0  0  0  0  0  0  0  0  0
   -7.5751   12.6703   -7.8962 H   0  0  0  0  0  0  0  0  0  0  0  0
   -7.5570   10.8928   -9.6336 H   0  0  0  0  0  0  0  0  0  0  0  0
   -8.0265   10.2586   -8.0080 H   0  0  0  0  0  0  0  0  0  0  0  0
  1  2  1  0
  2  3  1  0
  3  4  1  0
  4  5  1  0
  5  6  1  0
  6  7  1  0
  7  8  1  0
  8  9  1  0
  9 10  2  0
 10 11  1  0
 11 12  2  0
 12 13  1  0
 13 14  1  0
 14 15  1  0
 15 16  1  0
 16 17  1  0
 17 18  1  0
 18 19  1  0
 19 20  1  0
 13 21  2  0
 12 22  1  0
 22 23  1  0
 23 24  1  0
 24 25  2  0
 25 26  1  0
 25 27  1  0
 27 28  2  0
 28 29  1  0
 29 30  2  0
 30 31  1  0
 31 32  1  0
 32 33  1  0
 22 34  1  0
 34 35  2  0
 35 36  1  0
  5 37  1  0
 37 38  1  0
 38  2  1  0
 21  9  1  0
 30 24  1  0
 36 11  1  0
 20 15  1  0
 33 29  1  0
  1 39  1  0
  1 40  1  0
  1 41  1  0
  3 42  1  0
  3 43  1  0
  4 44  1  0
  4 45  1  0
  6 46  1  0
  6 47  1  0
  7 48  1  0
  7 49  1  0
 10 50  1  0
 15 51  1  0
 16 52  1  0
 16 53  1  0
 17 54  1  0
 17 55  1  0
 19 56  1  0
 19 57  1  0
 20 58  1  0
 20 59  1  0
 21 60  1  0
 22 61  1  0
 23 62  1  0
 27 63  1  0
 28 64  1  0
 32 65  1  0
 32 66  1  0
 35 67  1  0
 36 68  1  0
 37 69  1  0
 37 70  1  0
 38 71  1  0
 38 72  1  0
M  END
>  <meeko>  (5)
{"is_sidechain": false}

>  <source_group>  (5)
FYN canonical

>  <source_system>  (5)
FYN_saracatinib

>  <source_run>  (5)
vina_seed8831_ex64

>  <source_seed>  (5)
8831

>  <vina_pose_rank>  (5)
5

>  <vina_affinity_kcal_mol>  (5)
-8.8550000000000004

>  <vina_rmsd_to_crystal_angstrom>  (5)
4.6185999999999998

$$$$
FYN_saracatinib__vina_seed8831_ex64__pose06
     RDKit          3D

 72 77  0  0  0  0  0  0  0  0999 V2000
   -7.2030   22.4280   -4.1730 C   0  0  0  0  0  0  0  0  0  0  0  0
   -7.5270   21.0790   -4.6050 N   0  0  0  0  0  0  0  0  0  0  0  0
   -6.3880   20.4800   -5.2770 C   0  0  0  0  0  0  0  0  0  0  0  0
   -6.6700   19.0290   -5.6930 C   0  0  0  0  0  0  0  0  0  0  0  0
   -7.0630   18.1940   -4.5620 N   0  0  0  0  0  0  0  0  0  0  0  0
   -7.3780   16.8540   -5.0460 C   0  0  0  0  0  0  0  0  0  0  0  0
   -8.2150   16.7750   -6.3350 C   0  0  0  0  0  0  0  0  0  0  0  0
   -9.1910   15.7630   -6.2800 O   0  0  0  0  0  0  0  0  0  0  0  0
   -9.9800   15.6320   -7.3960 C   0  0  0  0  0  0  0  0  0  0  0  0
  -11.0410   16.4140   -7.6260 C   0  0  0  0  0  0  0  0  0  0  0  0
  -11.8010   16.2610   -8.7200 C   0  0  0  0  0  0  0  0  0  0  0  0
  -11.5520   15.3060   -9.6600 C   0  0  0  0  0  0  0  0  0  0  0  0
  -10.4800   14.4940   -9.4440 C   0  0  0  0  0  0  0  0  0  0  0  0
  -10.1250   13.5040  -10.3410 O   0  0  0  0  0  0  0  0  0  0  0  0
   -9.9850   12.1530   -9.9720 C   0  0  0  0  0  0  0  0  0  0  0  0
  -10.9800   11.7070   -8.9000 C   0  0  0  0  0  0  0  0  0  0  0  0
  -11.0350   10.1860   -8.8000 C   0  0  0  0  0  0  0  0  0  0  0  0
  -11.3540    9.6130  -10.0450 O   0  0  0  0  0  0  0  0  0  0  0  0
  -10.3250    9.8510  -10.9680 C   0  0  0  0  0  0  0  0  0  0  0  0
  -10.2280   11.3450  -11.2580 C   0  0  0  0  0  0  0  0  0  0  0  0
   -9.7400   14.6910   -8.3290 C   0  0  0  0  0  0  0  0  0  0  0  0
  -12.4020   15.2640  -10.7260 C   0  0  0  0  0  0  0  0  0  0  0  0
  -12.4870   14.5220  -11.7670 N   0  0  0  0  0  0  0  0  0  0  0  0
  -13.3930   14.1380  -12.5870 C   0  0  0  0  0  0  0  0  0  0  0  0
  -14.1040   13.0030  -12.3320 C   0  0  0  0  0  0  0  0  0  0  0  0
  -13.8700   12.0030  -10.9270 Cl  0  0  0  0  0  0  0  0  0  0  0  0
  -15.0730   12.5810  -13.1680 C   0  0  0  0  0  0  0  0  0  0  0  0
  -15.3740   13.2490  -14.2900 C   0  0  0  0  0  0  0  0  0  0  0  0
  -14.6800   14.3590  -14.5540 C   0  0  0  0  0  0  0  0  0  0  0  0
  -13.7170   14.7880  -13.7280 C   0  0  0  0  0  0  0  0  0  0  0  0
  -13.2200   15.8240  -14.1740 O   0  0  0  0  0  0  0  0  0  0  0  0
  -13.8240   16.1140  -15.4340 C   0  0  0  0  0  0  0  0  0  0  0  0
  -14.8130   15.0950  -15.5310 O   0  0  0  0  0  0  0  0  0  0  0  0
  -13.3590   16.1100  -10.7530 N   0  0  0  0  0  0  0  0  0  0  0  0
  -13.5040   16.9550   -9.8270 C   0  0  0  0  0  0  0  0  0  0  0  0
  -12.7710   17.0710   -8.8110 N   0  0  0  0  0  0  0  0  0  0  0  0
   -8.2110   18.8130   -3.9160 C   0  0  0  0  0  0  0  0  0  0  0  0
   -7.9090   20.2570   -3.4710 C   0  0  0  0  0  0  0  0  0  0  0  0
   -7.1932   22.4686   -3.0738 H   0  0  0  0  0  0  0  0  0  0  0  0
   -6.2119   22.7086   -4.5591 H   0  0  0  0  0  0  0  0  0  0  0  0
   -7.9585   23.1281   -4.5591 H   0  0  0  0  0  0  0  0  0  0  0  0
   -6.1546   21.0693   -6.1761 H   0  0  0  0  0  0  0  0  0  0  0  0
   -5.5404   20.4762   -4.5759 H   0  0  0  0  0  0  0  0  0  0  0  0
   -7.4826   19.0253   -6.4344 H   0  0  0  0  0  0  0  0  0  0  0  0
   -5.7418   18.6128   -6.1115 H   0  0  0  0  0  0  0  0  0  0  0  0
   -6.4275   16.3322   -5.2309 H   0  0  0  0  0  0  0  0  0  0  0  0
   -8.0011   16.3977   -4.2627 H   0  0  0  0  0  0  0  0  0  0  0  0
   -8.7168   17.7415   -6.4901 H   0  0  0  0  0  0  0  0  0  0  0  0
   -7.5322   16.5375   -7.1641 H   0  0  0  0  0  0  0  0  0  0  0  0
  -11.2957   17.2008   -6.9007 H   0  0  0  0  0  0  0  0  0  0  0  0
   -8.9875   11.9961   -9.5357 H   0  0  0  0  0  0  0  0  0  0  0  0
  -10.6704   12.1199   -7.9286 H   0  0  0  0  0  0  0  0  0  0  0  0
  -11.9791   12.0752   -9.1761 H   0  0  0  0  0  0  0  0  0  0  0  0
  -10.0546    9.8108   -8.4713 H   0  0  0  0  0  0  0  0  0  0  0  0
  -11.8146    9.9090   -8.0751 H   0  0  0  0  0  0  0  0  0  0  0  0
   -9.3708    9.4971  -10.5507 H   0  0  0  0  0  0  0  0  0  0  0  0
  -10.5428    9.3126  -11.9022 H   0  0  0  0  0  0  0  0  0  0  0  0
   -9.3944   11.5209  -11.9538 H   0  0  0  0  0  0  0  0  0  0  0  0
  -11.1808   11.6742  -11.6982 H   0  0  0  0  0  0  0  0  0  0  0  0
   -8.8743   14.0308   -8.1720 H   0  0  0  0  0  0  0  0  0  0  0  0
  -11.7486   15.9585  -11.2744 H   0  0  0  0  0  0  0  0  0  0  0  0
  -11.5570   14.1050  -12.0340 H   0  0  0  0  0  0  0  0  0  0  0  0
  -15.6309   11.6651  -12.9232 H   0  0  0  0  0  0  0  0  0  0  0  0
  -16.1641   12.8958  -14.9690 H   0  0  0  0  0  0  0  0  0  0  0  0
  -14.2801   17.1150  -15.4374 H   0  0  0  0  0  0  0  0  0  0  0  0
  -13.1138   16.1235  -16.2740 H   0  0  0  0  0  0  0  0  0  0  0  0
  -14.3485   17.6541   -9.9163 H   0  0  0  0  0  0  0  0  0  0  0  0
  -12.9420   17.7560   -8.1240 H   0  0  0  0  0  0  0  0  0  0  0  0
   -9.0527   18.8275   -4.6240 H   0  0  0  0  0  0  0  0  0  0  0  0
   -8.4572   18.2241   -3.0201 H   0  0  0  0  0  0  0  0  0  0  0  0
   -8.8075   20.6849   -3.0024 H   0  0  0  0  0  0  0  0  0  0  0  0
   -7.0747   20.2369   -2.7544 H   0  0  0  0  0  0  0  0  0  0  0  0
  1  2  1  0
  2  3  1  0
  3  4  1  0
  4  5  1  0
  5  6  1  0
  6  7  1  0
  7  8  1  0
  8  9  1  0
  9 10  2  0
 10 11  1  0
 11 12  2  0
 12 13  1  0
 13 14  1  0
 14 15  1  0
 15 16  1  0
 16 17  1  0
 17 18  1  0
 18 19  1  0
 19 20  1  0
 13 21  2  0
 12 22  1  0
 22 23  1  0
 23 24  1  0
 24 25  2  0
 25 26  1  0
 25 27  1  0
 27 28  2  0
 28 29  1  0
 29 30  2  0
 30 31  1  0
 31 32  1  0
 32 33  1  0
 22 34  1  0
 34 35  2  0
 35 36  1  0
  5 37  1  0
 37 38  1  0
 38  2  1  0
 21  9  1  0
 30 24  1  0
 36 11  1  0
 20 15  1  0
 33 29  1  0
  1 39  1  0
  1 40  1  0
  1 41  1  0
  3 42  1  0
  3 43  1  0
  4 44  1  0
  4 45  1  0
  6 46  1  0
  6 47  1  0
  7 48  1  0
  7 49  1  0
 10 50  1  0
 15 51  1  0
 16 52  1  0
 16 53  1  0
 17 54  1  0
 17 55  1  0
 19 56  1  0
 19 57  1  0
 20 58  1  0
 20 59  1  0
 21 60  1  0
 22 61  1  0
 23 62  1  0
 27 63  1  0
 28 64  1  0
 32 65  1  0
 32 66  1  0
 35 67  1  0
 36 68  1  0
 37 69  1  0
 37 70  1  0
 38 71  1  0
 38 72  1  0
M  END
>  <meeko>  (6)
{"is_sidechain": false}

>  <source_group>  (6)
FYN canonical

>  <source_system>  (6)
FYN_saracatinib

>  <source_run>  (6)
vina_seed8831_ex64

>  <source_seed>  (6)
8831

>  <vina_pose_rank>  (6)
6

>  <vina_affinity_kcal_mol>  (6)
-8.8360000000000003

>  <vina_rmsd_to_crystal_angstrom>  (6)
2.1572

$$$$
FYN_saracatinib__vina_seed8831_ex64__pose07
     RDKit          3D

 72 77  0  0  0  0  0  0  0  0999 V2000
   -7.1600   22.6140   -3.9040 C   0  0  0  0  0  0  0  0  0  0  0  0
   -7.5030   21.3050   -4.4310 N   0  0  0  0  0  0  0  0  0  0  0  0
   -6.3660   20.7320   -5.1300 C   0  0  0  0  0  0  0  0  0  0  0  0
   -6.6690   19.3190   -5.6480 C   0  0  0  0  0  0  0  0  0  0  0  0
   -7.0910   18.4150   -4.5830 N   0  0  0  0  0  0  0  0  0  0  0  0
   -7.4240   17.1180   -5.1630 C   0  0  0  0  0  0  0  0  0  0  0  0
   -8.4020   17.1330   -6.3490 C   0  0  0  0  0  0  0  0  0  0  0  0
   -9.3720   16.1170   -6.2590 O   0  0  0  0  0  0  0  0  0  0  0  0
  -10.1190   15.9010   -7.3910 C   0  0  0  0  0  0  0  0  0  0  0  0
  -11.2260   16.5990   -7.6690 C   0  0  0  0  0  0  0  0  0  0  0  0
  -11.9440   16.3640   -8.7770 C   0  0  0  0  0  0  0  0  0  0  0  0
  -11.6020   15.4060   -9.6830 C   0  0  0  0  0  0  0  0  0  0  0  0
  -10.4820   14.6780   -9.4180 C   0  0  0  0  0  0  0  0  0  0  0  0
  -10.0330   13.6930  -10.2790 O   0  0  0  0  0  0  0  0  0  0  0  0
   -9.8760   12.3510   -9.8880 C   0  0  0  0  0  0  0  0  0  0  0  0
  -10.9220   11.8830   -8.8760 C   0  0  0  0  0  0  0  0  0  0  0  0
  -10.9390   10.3630   -8.7640 C   0  0  0  0  0  0  0  0  0  0  0  0
  -11.1600    9.7700  -10.0200 O   0  0  0  0  0  0  0  0  0  0  0  0
  -10.0830   10.0310  -10.8790 C   0  0  0  0  0  0  0  0  0  0  0  0
  -10.0130   11.5250  -11.1780 C   0  0  0  0  0  0  0  0  0  0  0  0
   -9.7880   14.9570   -8.2910 C   0  0  0  0  0  0  0  0  0  0  0  0
  -12.4180   15.2760  -10.7690 C   0  0  0  0  0  0  0  0  0  0  0  0
  -12.4220   14.5030  -11.7910 N   0  0  0  0  0  0  0  0  0  0  0  0
  -13.2680   13.7940  -12.4420 C   0  0  0  0  0  0  0  0  0  0  0  0
  -13.7130   14.2140  -13.6600 C   0  0  0  0  0  0  0  0  0  0  0  0
  -13.1980   15.6890  -14.4280 Cl  0  0  0  0  0  0  0  0  0  0  0  0
  -14.5910   13.4830  -14.3750 C   0  0  0  0  0  0  0  0  0  0  0  0
  -15.0740   12.3200  -13.9180 C   0  0  0  0  0  0  0  0  0  0  0  0
  -14.6510   11.9010  -12.7220 C   0  0  0  0  0  0  0  0  0  0  0  0
  -13.7760   12.6190  -12.0060 C   0  0  0  0  0  0  0  0  0  0  0  0
  -13.5340   12.0380  -10.9460 O   0  0  0  0  0  0  0  0  0  0  0  0
  -14.3410   10.8630  -10.8750 C   0  0  0  0  0  0  0  0  0  0  0  0
  -14.9850   10.8680  -12.1440 O   0  0  0  0  0  0  0  0  0  0  0  0
  -13.4310   16.0490  -10.8430 N   0  0  0  0  0  0  0  0  0  0  0  0
  -13.6610   16.9050   -9.9450 C   0  0  0  0  0  0  0  0  0  0  0  0
  -12.9660   17.1000   -8.9140 N   0  0  0  0  0  0  0  0  0  0  0  0
   -8.2360   19.0100   -3.9100 C   0  0  0  0  0  0  0  0  0  0  0  0
   -7.9150   20.4130   -3.3620 C   0  0  0  0  0  0  0  0  0  0  0  0
   -7.1688   22.5804   -2.8045 H   0  0  0  0  0  0  0  0  0  0  0  0
   -6.1569   22.8989   -4.2541 H   0  0  0  0  0  0  0  0  0  0  0  0
   -7.8945   23.3542   -4.2541 H   0  0  0  0  0  0  0  0  0  0  0  0
   -6.1107   21.3771   -5.9836 H   0  0  0  0  0  0  0  0  0  0  0  0
   -5.5274   20.6641   -4.4213 H   0  0  0  0  0  0  0  0  0  0  0  0
   -7.4722   19.3819   -6.3970 H   0  0  0  0  0  0  0  0  0  0  0  0
   -5.7429   18.9155   -6.0833 H   0  0  0  0  0  0  0  0  0  0  0  0
   -6.4876   16.6542   -5.5066 H   0  0  0  0  0  0  0  0  0  0  0  0
   -7.9394   16.5635   -4.3649 H   0  0  0  0  0  0  0  0  0  0  0  0
   -8.9123   18.1071   -6.3734 H   0  0  0  0  0  0  0  0  0  0  0  0
   -7.8193   16.9594   -7.2657 H   0  0  0  0  0  0  0  0  0  0  0  0
  -11.5550   17.3841   -6.9723 H   0  0  0  0  0  0  0  0  0  0  0  0
   -8.9037   12.2292   -9.3882 H   0  0  0  0  0  0  0  0  0  0  0  0
  -10.6860   12.3127   -7.8913 H   0  0  0  0  0  0  0  0  0  0  0  0
  -11.9122   12.2182   -9.2182 H   0  0  0  0  0  0  0  0  0  0  0  0
   -9.9713   10.0201   -8.3690 H   0  0  0  0  0  0  0  0  0  0  0  0
  -11.7556   10.0694   -8.0880 H   0  0  0  0  0  0  0  0  0  0  0  0
   -9.1467    9.7101  -10.3991 H   0  0  0  0  0  0  0  0  0  0  0  0
  -10.2252    9.4780  -11.8192 H   0  0  0  0  0  0  0  0  0  0  0  0
   -9.1429   11.7205  -11.8219 H   0  0  0  0  0  0  0  0  0  0  0  0
  -10.9457   11.8210  -11.6805 H   0  0  0  0  0  0  0  0  0  0  0  0
   -8.8815   14.3656   -8.0947 H   0  0  0  0  0  0  0  0  0  0  0  0
  -11.8006   16.0009  -11.3197 H   0  0  0  0  0  0  0  0  0  0  0  0
  -11.4670   14.4190  -12.2290 H   0  0  0  0  0  0  0  0  0  0  0  0
  -14.9192   13.8505  -15.3585 H   0  0  0  0  0  0  0  0  0  0  0  0
  -15.7931   11.7312  -14.5064 H   0  0  0  0  0  0  0  0  0  0  0  0
  -13.7239    9.9619  -10.7437 H   0  0  0  0  0  0  0  0  0  0  0  0
  -15.0383   10.8551  -10.0243 H   0  0  0  0  0  0  0  0  0  0  0  0
  -14.5505   17.5389  -10.0752 H   0  0  0  0  0  0  0  0  0  0  0  0
  -13.2040   17.7880   -8.2500 H   0  0  0  0  0  0  0  0  0  0  0  0
   -9.0674   19.0895   -4.6259 H   0  0  0  0  0  0  0  0  0  0  0  0
   -8.5046   18.3654   -3.0601 H   0  0  0  0  0  0  0  0  0  0  0  0
   -8.8122   20.8237   -2.8759 H   0  0  0  0  0  0  0  0  0  0  0  0
   -7.0910   20.3276   -2.6383 H   0  0  0  0  0  0  0  0  0  0  0  0
  1  2  1  0
  2  3  1  0
  3  4  1  0
  4  5  1  0
  5  6  1  0
  6  7  1  0
  7  8  1  0
  8  9  1  0
  9 10  2  0
 10 11  1  0
 11 12  2  0
 12 13  1  0
 13 14  1  0
 14 15  1  0
 15 16  1  0
 16 17  1  0
 17 18  1  0
 18 19  1  0
 19 20  1  0
 13 21  2  0
 12 22  1  0
 22 23  1  0
 23 24  1  0
 24 25  2  0
 25 26  1  0
 25 27  1  0
 27 28  2  0
 28 29  1  0
 29 30  2  0
 30 31  1  0
 31 32  1  0
 32 33  1  0
 22 34  1  0
 34 35  2  0
 35 36  1  0
  5 37  1  0
 37 38  1  0
 38  2  1  0
 21  9  1  0
 30 24  1  0
 36 11  1  0
 20 15  1  0
 33 29  1  0
  1 39  1  0
  1 40  1  0
  1 41  1  0
  3 42  1  0
  3 43  1  0
  4 44  1  0
  4 45  1  0
  6 46  1  0
  6 47  1  0
  7 48  1  0
  7 49  1  0
 10 50  1  0
 15 51  1  0
 16 52  1  0
 16 53  1  0
 17 54  1  0
 17 55  1  0
 19 56  1  0
 19 57  1  0
 20 58  1  0
 20 59  1  0
 21 60  1  0
 22 61  1  0
 23 62  1  0
 27 63  1  0
 28 64  1  0
 32 65  1  0
 32 66  1  0
 35 67  1  0
 36 68  1  0
 37 69  1  0
 37 70  1  0
 38 71  1  0
 38 72  1  0
M  END
>  <meeko>  (7)
{"is_sidechain": false}

>  <source_group>  (7)
FYN canonical

>  <source_system>  (7)
FYN_saracatinib

>  <source_run>  (7)
vina_seed8831_ex64

>  <source_seed>  (7)
8831

>  <vina_pose_rank>  (7)
7

>  <vina_affinity_kcal_mol>  (7)
-8.7439999999999998

>  <vina_rmsd_to_crystal_angstrom>  (7)
2.9365000000000001

$$$$
FYN_saracatinib__vina_seed8831_ex64__pose08
     RDKit          3D

 72 77  0  0  0  0  0  0  0  0999 V2000
   -3.4190   13.4610   -6.5610 C   0  0  0  0  0  0  0  0  0  0  0  0
   -4.3510   14.4390   -6.0270 N   0  0  0  0  0  0  0  0  0  0  0  0
   -4.2890   15.6660   -6.8020 C   0  0  0  0  0  0  0  0  0  0  0  0
   -5.3060   16.7040   -6.3070 C   0  0  0  0  0  0  0  0  0  0  0  0
   -6.6730   16.1910   -6.3160 N   0  0  0  0  0  0  0  0  0  0  0  0
   -7.5660   17.2080   -5.7710 C   0  0  0  0  0  0  0  0  0  0  0  0
   -8.8630   17.4670   -6.5550 C   0  0  0  0  0  0  0  0  0  0  0  0
   -9.7670   16.3930   -6.4690 O   0  0  0  0  0  0  0  0  0  0  0  0
  -10.4980   16.1330   -7.6030 C   0  0  0  0  0  0  0  0  0  0  0  0
  -11.6000   16.8190   -7.9240 C   0  0  0  0  0  0  0  0  0  0  0  0
  -12.3010   16.5410   -9.0330 C   0  0  0  0  0  0  0  0  0  0  0  0
  -11.9460   15.5480   -9.8960 C   0  0  0  0  0  0  0  0  0  0  0  0
  -10.8310   14.8310   -9.5850 C   0  0  0  0  0  0  0  0  0  0  0  0
  -10.3700   13.8130  -10.4000 O   0  0  0  0  0  0  0  0  0  0  0  0
  -10.2400   12.4830   -9.9610 C   0  0  0  0  0  0  0  0  0  0  0  0
  -11.3190   12.0620   -8.9630 C   0  0  0  0  0  0  0  0  0  0  0  0
  -11.3570   10.5460   -8.8000 C   0  0  0  0  0  0  0  0  0  0  0  0
  -11.5520    9.9140  -10.0420 O   0  0  0  0  0  0  0  0  0  0  0  0
  -10.4500   10.1340  -10.8800 C   0  0  0  0  0  0  0  0  0  0  0  0
  -10.3530   11.6160  -11.2260 C   0  0  0  0  0  0  0  0  0  0  0  0
  -10.1540   15.1540   -8.4600 C   0  0  0  0  0  0  0  0  0  0  0  0
  -12.7460   15.3750  -10.9880 C   0  0  0  0  0  0  0  0  0  0  0  0
  -12.7350   14.5630  -11.9790 N   0  0  0  0  0  0  0  0  0  0  0  0
  -13.5540   14.1390  -12.8680 C   0  0  0  0  0  0  0  0  0  0  0  0
  -14.2430   12.9810  -12.6610 C   0  0  0  0  0  0  0  0  0  0  0  0
  -14.0910   12.0010  -11.2310 Cl  0  0  0  0  0  0  0  0  0  0  0  0
  -15.1220   12.5170  -13.5710 C   0  0  0  0  0  0  0  0  0  0  0  0
  -15.3520   13.1650  -14.7210 C   0  0  0  0  0  0  0  0  0  0  0  0
  -14.6790   14.2990  -14.9380 C   0  0  0  0  0  0  0  0  0  0  0  0
  -13.8050   14.7690  -14.0380 C   0  0  0  0  0  0  0  0  0  0  0  0
  -13.3100   15.8190  -14.4520 O   0  0  0  0  0  0  0  0  0  0  0  0
  -13.8160   16.0770  -15.7610 C   0  0  0  0  0  0  0  0  0  0  0  0
  -14.7560   15.0220  -15.9300 O   0  0  0  0  0  0  0  0  0  0  0  0
  -13.7570   16.1450  -11.1080 N   0  0  0  0  0  0  0  0  0  0  0  0
  -14.0000   17.0360  -10.2470 C   0  0  0  0  0  0  0  0  0  0  0  0
  -13.3210   17.2710   -9.2150 N   0  0  0  0  0  0  0  0  0  0  0  0
   -6.7050   14.9710   -5.5230 C   0  0  0  0  0  0  0  0  0  0  0  0
   -5.7060   13.9200   -6.0460 C   0  0  0  0  0  0  0  0  0  0  0  0
   -2.9208   12.9382   -5.7313 H   0  0  0  0  0  0  0  0  0  0  0  0
   -3.9654   12.7325   -7.1780 H   0  0  0  0  0  0  0  0  0  0  0  0
   -2.6651   13.9717   -7.1780 H   0  0  0  0  0  0  0  0  0  0  0  0
   -3.2775   16.0899   -6.7175 H   0  0  0  0  0  0  0  0  0  0  0  0
   -4.5293   15.4229   -7.8475 H   0  0  0  0  0  0  0  0  0  0  0  0
   -5.0438   16.9932   -5.2786 H   0  0  0  0  0  0  0  0  0  0  0  0
   -5.2661   17.5653   -6.9900 H   0  0  0  0  0  0  0  0  0  0  0  0
   -7.8458   16.8977   -4.7534 H   0  0  0  0  0  0  0  0  0  0  0  0
   -7.0010   18.1506   -5.8194 H   0  0  0  0  0  0  0  0  0  0  0  0
   -9.3462   18.3683   -6.1499 H   0  0  0  0  0  0  0  0  0  0  0  0
   -8.5941   17.5940   -7.6140 H   0  0  0  0  0  0  0  0  0  0  0  0
  -11.9394   17.6302   -7.2631 H   0  0  0  0  0  0  0  0  0  0  0  0
   -9.2828   12.3662   -9.4317 H   0  0  0  0  0  0  0  0  0  0  0  0
  -11.1049   12.5227   -7.9873 H   0  0  0  0  0  0  0  0  0  0  0  0
  -12.2954   12.3964   -9.3434 H   0  0  0  0  0  0  0  0  0  0  0  0
  -10.4042   10.2059   -8.3681 H   0  0  0  0  0  0  0  0  0  0  0  0
  -12.1940   10.2839   -8.1361 H   0  0  0  0  0  0  0  0  0  0  0  0
   -9.5307    9.8181  -10.3651 H   0  0  0  0  0  0  0  0  0  0  0  0
  -10.5748    9.5521  -11.8051 H   0  0  0  0  0  0  0  0  0  0  0  0
   -9.4636   11.7795  -11.8522 H   0  0  0  0  0  0  0  0  0  0  0  0
  -11.2682   11.9060  -11.7630 H   0  0  0  0  0  0  0  0  0  0  0  0
   -9.2510   14.5707   -8.2269 H   0  0  0  0  0  0  0  0  0  0  0  0
  -12.1208   16.0785  -11.5575 H   0  0  0  0  0  0  0  0  0  0  0  0
  -11.7930   14.1100  -12.1100 H   0  0  0  0  0  0  0  0  0  0  0  0
  -15.6644   11.5826  -13.3645 H   0  0  0  0  0  0  0  0  0  0  0  0
  -16.0689   12.7776  -15.4599 H   0  0  0  0  0  0  0  0  0  0  0  0
  -14.3059   17.0605  -15.8131 H   0  0  0  0  0  0  0  0  0  0  0  0
  -13.0384   16.1060  -16.5385 H   0  0  0  0  0  0  0  0  0  0  0  0
  -14.8871   17.6643  -10.4151 H   0  0  0  0  0  0  0  0  0  0  0  0
  -13.5680   17.9840   -8.5820 H   0  0  0  0  0  0  0  0  0  0  0  0
   -6.4501   15.2168   -4.4816 H   0  0  0  0  0  0  0  0  0  0  0  0
   -7.7166   14.5448   -5.5932 H   0  0  0  0  0  0  0  0  0  0  0  0
   -5.7579   13.0252   -5.4084 H   0  0  0  0  0  0  0  0  0  0  0  0
   -5.9715   13.6685   -7.0834 H   0  0  0  0  0  0  0  0  0  0  0  0
  1  2  1  0
  2  3  1  0
  3  4  1  0
  4  5  1  0
  5  6  1  0
  6  7  1  0
  7  8  1  0
  8  9  1  0
  9 10  2  0
 10 11  1  0
 11 12  2  0
 12 13  1  0
 13 14  1  0
 14 15  1  0
 15 16  1  0
 16 17  1  0
 17 18  1  0
 18 19  1  0
 19 20  1  0
 13 21  2  0
 12 22  1  0
 22 23  1  0
 23 24  1  0
 24 25  2  0
 25 26  1  0
 25 27  1  0
 27 28  2  0
 28 29  1  0
 29 30  2  0
 30 31  1  0
 31 32  1  0
 32 33  1  0
 22 34  1  0
 34 35  2  0
 35 36  1  0
  5 37  1  0
 37 38  1  0
 38  2  1  0
 21  9  1  0
 30 24  1  0
 36 11  1  0
 20 15  1  0
 33 29  1  0
  1 39  1  0
  1 40  1  0
  1 41  1  0
  3 42  1  0
  3 43  1  0
  4 44  1  0
  4 45  1  0
  6 46  1  0
  6 47  1  0
  7 48  1  0
  7 49  1  0
 10 50  1  0
 15 51  1  0
 16 52  1  0
 16 53  1  0
 17 54  1  0
 17 55  1  0
 19 56  1  0
 19 57  1  0
 20 58  1  0
 20 59  1  0
 21 60  1  0
 22 61  1  0
 23 62  1  0
 27 63  1  0
 28 64  1  0
 32 65  1  0
 32 66  1  0
 35 67  1  0
 36 68  1  0
 37 69  1  0
 37 70  1  0
 38 71  1  0
 38 72  1  0
M  END
>  <meeko>  (8)
{"is_sidechain": false}

>  <source_group>  (8)
FYN canonical

>  <source_system>  (8)
FYN_saracatinib

>  <source_run>  (8)
vina_seed8831_ex64

>  <source_seed>  (8)
8831

>  <vina_pose_rank>  (8)
8

>  <vina_affinity_kcal_mol>  (8)
-8.6920000000000002

>  <vina_rmsd_to_crystal_angstrom>  (8)
2.1751999999999998

$$$$
FYN_saracatinib__vina_seed8831_ex64__pose09
     RDKit          3D

 72 77  0  0  0  0  0  0  0  0999 V2000
  -17.5520   12.5150  -15.6920 C   0  0  0  0  0  0  0  0  0  0  0  0
  -16.3740   12.8990  -14.9330 N   0  0  0  0  0  0  0  0  0  0  0  0
  -15.4200   13.5730  -15.7960 C   0  0  0  0  0  0  0  0  0  0  0  0
  -14.1870   14.0530  -15.0160 C   0  0  0  0  0  0  0  0  0  0  0  0
  -14.5400   14.9270  -13.9020 N   0  0  0  0  0  0  0  0  0  0  0  0
  -13.3260   15.2830  -13.1740 C   0  0  0  0  0  0  0  0  0  0  0  0
  -13.2840   14.8910  -11.6870 C   0  0  0  0  0  0  0  0  0  0  0  0
  -13.1830   16.0100  -10.8400 O   0  0  0  0  0  0  0  0  0  0  0  0
  -12.2330   15.9290   -9.8510 C   0  0  0  0  0  0  0  0  0  0  0  0
  -12.0700   16.8810   -8.9260 C   0  0  0  0  0  0  0  0  0  0  0  0
  -11.1290   16.7810   -7.9760 C   0  0  0  0  0  0  0  0  0  0  0  0
  -10.2810   15.7190   -7.8910 C   0  0  0  0  0  0  0  0  0  0  0  0
  -10.4240   14.7390   -8.8260 C   0  0  0  0  0  0  0  0  0  0  0  0
   -9.6300   13.6080   -8.8230 O   0  0  0  0  0  0  0  0  0  0  0  0
   -9.7650   12.5770   -9.7710 C   0  0  0  0  0  0  0  0  0  0  0  0
   -8.5540   12.4350  -10.6950 C   0  0  0  0  0  0  0  0  0  0  0  0
   -8.5850   11.1060  -11.4420 C   0  0  0  0  0  0  0  0  0  0  0  0
   -8.6550   10.0270  -10.5430 O   0  0  0  0  0  0  0  0  0  0  0  0
   -9.8730   10.0490   -9.8480 C   0  0  0  0  0  0  0  0  0  0  0  0
   -9.9350   11.2840   -8.9560 C   0  0  0  0  0  0  0  0  0  0  0  0
  -11.3920   14.8820   -9.7610 C   0  0  0  0  0  0  0  0  0  0  0  0
   -9.3740   15.7430   -6.8720 C   0  0  0  0  0  0  0  0  0  0  0  0
   -8.4400   14.9520   -6.4920 N   0  0  0  0  0  0  0  0  0  0  0  0
   -7.7140   14.7700   -5.4540 C   0  0  0  0  0  0  0  0  0  0  0  0
   -6.4150   15.1860   -5.4500 C   0  0  0  0  0  0  0  0  0  0  0  0
   -5.6430   15.9760   -6.7960 Cl  0  0  0  0  0  0  0  0  0  0  0  0
   -5.6290   15.0230   -4.3680 C   0  0  0  0  0  0  0  0  0  0  0  0
   -6.0840   14.4360   -3.2520 C   0  0  0  0  0  0  0  0  0  0  0  0
   -7.3530   14.0190   -3.2450 C   0  0  0  0  0  0  0  0  0  0  0  0
   -8.1420   14.1790   -4.3150 C   0  0  0  0  0  0  0  0  0  0  0  0
   -9.2610   13.7210   -4.0770 O   0  0  0  0  0  0  0  0  0  0  0  0
   -9.2470   13.1370   -2.7750 C   0  0  0  0  0  0  0  0  0  0  0  0
   -7.9380   13.4600   -2.3190 O   0  0  0  0  0  0  0  0  0  0  0  0
   -9.3880   16.7540   -6.0920 N   0  0  0  0  0  0  0  0  0  0  0  0
  -10.2160   17.6920   -6.2600 C   0  0  0  0  0  0  0  0  0  0  0  0
  -11.0880   17.7540   -7.1650 N   0  0  0  0  0  0  0  0  0  0  0  0
  -15.4860   14.2210  -13.0510 C   0  0  0  0  0  0  0  0  0  0  0  0
  -16.7370   13.7730  -13.8320 C   0  0  0  0  0  0  0  0  0  0  0  0
  -18.3643   12.2502  -14.9992 H   0  0  0  0  0  0  0  0  0  0  0  0
  -17.8701   13.3560  -16.3257 H   0  0  0  0  0  0  0  0  0  0  0  0
  -17.3134   11.6481  -16.3257 H   0  0  0  0  0  0  0  0  0  0  0  0
  -15.0951   12.8749  -16.5816 H   0  0  0  0  0  0  0  0  0  0  0  0
  -15.9145   14.4541  -16.2308 H   0  0  0  0  0  0  0  0  0  0  0  0
  -13.6546   13.1750  -14.6214 H   0  0  0  0  0  0  0  0  0  0  0  0
  -13.5554   14.6295  -15.7080 H   0  0  0  0  0  0  0  0  0  0  0  0
  -12.4787   14.7914  -13.6744 H   0  0  0  0  0  0  0  0  0  0  0  0
  -13.2863   16.3822  -13.1891 H   0  0  0  0  0  0  0  0  0  0  0  0
  -14.2052   14.3430  -11.4400 H   0  0  0  0  0  0  0  0  0  0  0  0
  -12.3905   14.2691  -11.5292 H   0  0  0  0  0  0  0  0  0  0  0  0
  -12.7227   17.7662   -8.9449 H   0  0  0  0  0  0  0  0  0  0  0  0
  -10.6181   12.7976  -10.4295 H   0  0  0  0  0  0  0  0  0  0  0  0
   -8.5611   13.2576  -11.4252 H   0  0  0  0  0  0  0  0  0  0  0  0
   -7.6414   12.4695  -10.0819 H   0  0  0  0  0  0  0  0  0  0  0  0
   -9.4655   11.0836  -12.1009 H   0  0  0  0  0  0  0  0  0  0  0  0
   -7.6614   11.0127  -12.0321 H   0  0  0  0  0  0  0  0  0  0  0  0
  -10.7041   10.0762  -10.5681 H   0  0  0  0  0  0  0  0  0  0  0  0
   -9.9526    9.1460   -9.2250 H   0  0  0  0  0  0  0  0  0  0  0  0
  -10.9095   11.3083   -8.4463 H   0  0  0  0  0  0  0  0  0  0  0  0
   -9.1133   11.2249   -8.2271 H   0  0  0  0  0  0  0  0  0  0  0  0
  -11.4999   14.0797  -10.5057 H   0  0  0  0  0  0  0  0  0  0  0  0
  -10.0873   15.2118   -6.2246 H   0  0  0  0  0  0  0  0  0  0  0  0
   -8.1910   14.2470   -7.2360 H   0  0  0  0  0  0  0  0  0  0  0  0
   -4.5891   15.3801   -4.4011 H   0  0  0  0  0  0  0  0  0  0  0  0
   -5.4356   14.3025   -2.3735 H   0  0  0  0  0  0  0  0  0  0  0  0
  -10.0168   13.5836   -2.1285 H   0  0  0  0  0  0  0  0  0  0  0  0
   -9.4643   12.0587   -2.7706 H   0  0  0  0  0  0  0  0  0  0  0  0
  -10.1711   18.5315   -5.5507 H   0  0  0  0  0  0  0  0  0  0  0  0
  -11.7050   18.5180   -7.2390 H   0  0  0  0  0  0  0  0  0  0  0  0
  -14.9920   13.3326  -12.6305 H   0  0  0  0  0  0  0  0  0  0  0  0
  -15.8085   14.9087  -12.2554 H   0  0  0  0  0  0  0  0  0  0  0  0
  -17.4126   13.2338  -13.1516 H   0  0  0  0  0  0  0  0  0  0  0  0
  -17.2350   14.6648  -14.2402 H   0  0  0  0  0  0  0  0  0  0  0  0
  1  2  1  0
  2  3  1  0
  3  4  1  0
  4  5  1  0
  5  6  1  0
  6  7  1  0
  7  8  1  0
  8  9  1  0
  9 10  2  0
 10 11  1  0
 11 12  2  0
 12 13  1  0
 13 14  1  0
 14 15  1  0
 15 16  1  0
 16 17  1  0
 17 18  1  0
 18 19  1  0
 19 20  1  0
 13 21  2  0
 12 22  1  0
 22 23  1  0
 23 24  1  0
 24 25  2  0
 25 26  1  0
 25 27  1  0
 27 28  2  0
 28 29  1  0
 29 30  2  0
 30 31  1  0
 31 32  1  0
 32 33  1  0
 22 34  1  0
 34 35  2  0
 35 36  1  0
  5 37  1  0
 37 38  1  0
 38  2  1  0
 21  9  1  0
 30 24  1  0
 36 11  1  0
 20 15  1  0
 33 29  1  0
  1 39  1  0
  1 40  1  0
  1 41  1  0
  3 42  1  0
  3 43  1  0
  4 44  1  0
  4 45  1  0
  6 46  1  0
  6 47  1  0
  7 48  1  0
  7 49  1  0
 10 50  1  0
 15 51  1  0
 16 52  1  0
 16 53  1  0
 17 54  1  0
 17 55  1  0
 19 56  1  0
 19 57  1  0
 20 58  1  0
 20 59  1  0
 21 60  1  0
 22 61  1  0
 23 62  1  0
 27 63  1  0
 28 64  1  0
 32 65  1  0
 32 66  1  0
 35 67  1  0
 36 68  1  0
 37 69  1  0
 37 70  1  0
 38 71  1  0
 38 72  1  0
M  END
>  <meeko>  (9)
{"is_sidechain": false}

>  <source_group>  (9)
FYN canonical

>  <source_system>  (9)
FYN_saracatinib

>  <source_run>  (9)
vina_seed8831_ex64

>  <source_seed>  (9)
8831

>  <vina_pose_rank>  (9)
9

>  <vina_affinity_kcal_mol>  (9)
-8.5899999999999999

>  <vina_rmsd_to_crystal_angstrom>  (9)
9.5818999999999992

$$$$
FYN_saracatinib__vina_seed8831_ex64__pose10
     RDKit          3D

 72 77  0  0  0  0  0  0  0  0999 V2000
  -13.1920   17.4300   -9.5980 C   0  0  0  0  0  0  0  0  0  0  0  0
  -12.1800   16.3930   -9.4980 N   0  0  0  0  0  0  0  0  0  0  0  0
  -12.1140   15.8860   -8.1390 C   0  0  0  0  0  0  0  0  0  0  0  0
  -11.0990   14.7420   -8.0060 C   0  0  0  0  0  0  0  0  0  0  0  0
  -11.3790   13.6410   -8.9230 N   0  0  0  0  0  0  0  0  0  0  0  0
  -10.3370   12.6300   -8.7840 C   0  0  0  0  0  0  0  0  0  0  0  0
  -10.8000   11.2270   -8.3570 C   0  0  0  0  0  0  0  0  0  0  0  0
  -11.9520   10.8080   -9.0490 O   0  0  0  0  0  0  0  0  0  0  0  0
  -11.7310   10.1270  -10.2220 C   0  0  0  0  0  0  0  0  0  0  0  0
  -11.1980    8.9010  -10.2550 C   0  0  0  0  0  0  0  0  0  0  0  0
  -10.9850    8.2600  -11.4130 C   0  0  0  0  0  0  0  0  0  0  0  0
  -11.2870    8.8090  -12.6230 C   0  0  0  0  0  0  0  0  0  0  0  0
  -11.8260   10.0600  -12.6140 C   0  0  0  0  0  0  0  0  0  0  0  0
  -12.1880   10.7050  -13.7820 O   0  0  0  0  0  0  0  0  0  0  0  0
  -13.1540   11.7270  -13.8230 C   0  0  0  0  0  0  0  0  0  0  0  0
  -12.6290   13.0390  -14.4080 C   0  0  0  0  0  0  0  0  0  0  0  0
  -13.7750   13.9800  -14.7650 C   0  0  0  0  0  0  0  0  0  0  0  0
  -14.6730   13.3610  -15.6540 O   0  0  0  0  0  0  0  0  0  0  0  0
  -15.3090   12.2790  -15.0290 C   0  0  0  0  0  0  0  0  0  0  0  0
  -14.2870   11.1920  -14.7130 C   0  0  0  0  0  0  0  0  0  0  0  0
  -12.0280   10.6630  -11.4200 C   0  0  0  0  0  0  0  0  0  0  0  0
  -11.0230    8.0460  -13.7220 C   0  0  0  0  0  0  0  0  0  0  0  0
  -11.1590    8.2250  -14.9840 N   0  0  0  0  0  0  0  0  0  0  0  0
  -10.4500    8.0980  -16.0420 C   0  0  0  0  0  0  0  0  0  0  0  0
  -10.8160    7.2020  -17.0030 C   0  0  0  0  0  0  0  0  0  0  0  0
  -12.2240    6.1850  -16.8980 Cl  0  0  0  0  0  0  0  0  0  0  0  0
  -10.0980    7.0550  -18.1340 C   0  0  0  0  0  0  0  0  0  0  0  0
   -8.9900    7.7730  -18.3610 C   0  0  0  0  0  0  0  0  0  0  0  0
   -8.6180    8.6500  -17.4250 C   0  0  0  0  0  0  0  0  0  0  0  0
   -9.3260    8.8050  -16.2990 C   0  0  0  0  0  0  0  0  0  0  0  0
   -8.7950    9.6630  -15.5910 O   0  0  0  0  0  0  0  0  0  0  0  0
   -7.5940   10.0990  -16.2260 C   0  0  0  0  0  0  0  0  0  0  0  0
   -7.6340    9.3880  -17.4580 O   0  0  0  0  0  0  0  0  0  0  0  0
  -10.5100    6.8920  -13.5310 N   0  0  0  0  0  0  0  0  0  0  0  0
  -10.2640    6.4770  -12.3650 C   0  0  0  0  0  0  0  0  0  0  0  0
  -10.4760    7.1050  -11.2960 N   0  0  0  0  0  0  0  0  0  0  0  0
  -11.4270   14.1780  -10.2750 C   0  0  0  0  0  0  0  0  0  0  0  0
  -12.4720   15.3010  -10.4100 C   0  0  0  0  0  0  0  0  0  0  0  0
  -13.4974   17.7429   -8.5886 H   0  0  0  0  0  0  0  0  0  0  0  0
  -12.7798   18.2935  -10.1406 H   0  0  0  0  0  0  0  0  0  0  0  0
  -14.0653   17.0390  -10.1406 H   0  0  0  0  0  0  0  0  0  0  0  0
  -11.8173   16.7051   -7.4674 H   0  0  0  0  0  0  0  0  0  0  0  0
  -13.1068   15.4951   -7.8713 H   0  0  0  0  0  0  0  0  0  0  0  0
  -10.0941   15.1343   -8.2212 H   0  0  0  0  0  0  0  0  0  0  0  0
  -11.1672   14.3503   -6.9804 H   0  0  0  0  0  0  0  0  0  0  0  0
   -9.8313   12.5344   -9.7562 H   0  0  0  0  0  0  0  0  0  0  0  0
   -9.6906   12.9859   -7.9682 H   0  0  0  0  0  0  0  0  0  0  0  0
   -9.9886   10.5115   -8.5561 H   0  0  0  0  0  0  0  0  0  0  0  0
  -11.0483   11.2674   -7.2862 H   0  0  0  0  0  0  0  0  0  0  0  0
  -10.9281    8.4070   -9.3100 H   0  0  0  0  0  0  0  0  0  0  0  0
  -13.4756   11.9651  -12.7984 H   0  0  0  0  0  0  0  0  0  0  0  0
  -11.9802   13.5284  -13.6667 H   0  0  0  0  0  0  0  0  0  0  0  0
  -12.0660   12.8114  -15.3252 H   0  0  0  0  0  0  0  0  0  0  0  0
  -14.3119   14.2587  -13.8463 H   0  0  0  0  0  0  0  0  0  0  0  0
  -13.3578   14.8739  -15.2517 H   0  0  0  0  0  0  0  0  0  0  0  0
  -15.7788   12.6213  -14.0951 H   0  0  0  0  0  0  0  0  0  0  0  0
  -16.0773   11.8708  -15.7022 H   0  0  0  0  0  0  0  0  0  0  0  0
  -14.7928   10.3666  -14.1905 H   0  0  0  0  0  0  0  0  0  0  0  0
  -13.8479   10.8448  -15.6599 H   0  0  0  0  0  0  0  0  0  0  0  0
  -12.4696   11.6704  -11.4292 H   0  0  0  0  0  0  0  0  0  0  0  0
  -12.0375    7.6238  -13.6726 H   0  0  0  0  0  0  0  0  0  0  0  0
  -12.1220    8.5750  -15.2330 H   0  0  0  0  0  0  0  0  0  0  0  0
  -10.4299    6.3275  -18.8894 H   0  0  0  0  0  0  0  0  0  0  0  0
   -8.4075    7.6448  -19.2852 H   0  0  0  0  0  0  0  0  0  0  0  0
   -7.6020   11.1864  -16.3920 H   0  0  0  0  0  0  0  0  0  0  0  0
   -6.6862    9.9093  -15.6344 H   0  0  0  0  0  0  0  0  0  0  0  0
   -9.8234    5.4731  -12.2751 H   0  0  0  0  0  0  0  0  0  0  0  0
  -10.2590    6.7200  -10.4160 H   0  0  0  0  0  0  0  0  0  0  0  0
  -10.4365   14.5810  -10.5330 H   0  0  0  0  0  0  0  0  0  0  0  0
  -11.7129   13.3626  -10.9557 H   0  0  0  0  0  0  0  0  0  0  0  0
  -12.4609   15.6811  -11.4422 H   0  0  0  0  0  0  0  0  0  0  0  0
  -13.4623   14.8913  -10.1621 H   0  0  0  0  0  0  0  0  0  0  0  0
  1  2  1  0
  2  3  1  0
  3  4  1  0
  4  5  1  0
  5  6  1  0
  6  7  1  0
  7  8  1  0
  8  9  1  0
  9 10  2  0
 10 11  1  0
 11 12  2  0
 12 13  1  0
 13 14  1  0
 14 15  1  0
 15 16  1  0
 16 17  1  0
 17 18  1  0
 18 19  1  0
 19 20  1  0
 13 21  2  0
 12 22  1  0
 22 23  1  0
 23 24  1  0
 24 25  2  0
 25 26  1  0
 25 27  1  0
 27 28  2  0
 28 29  1  0
 29 30  2  0
 30 31  1  0
 31 32  1  0
 32 33  1  0
 22 34  1  0
 34 35  2  0
 35 36  1  0
  5 37  1  0
 37 38  1  0
 38  2  1  0
 21  9  1  0
 30 24  1  0
 36 11  1  0
 20 15  1  0
 33 29  1  0
  1 39  1  0
  1 40  1  0
  1 41  1  0
  3 42  1  0
  3 43  1  0
  4 44  1  0
  4 45  1  0
  6 46  1  0
  6 47  1  0
  7 48  1  0
  7 49  1  0
 10 50  1  0
 15 51  1  0
 16 52  1  0
 16 53  1  0
 17 54  1  0
 17 55  1  0
 19 56  1  0
 19 57  1  0
 20 58  1  0
 20 59  1  0
 21 60  1  0
 22 61  1  0
 23 62  1  0
 27 63  1  0
 28 64  1  0
 32 65  1  0
 32 66  1  0
 35 67  1  0
 36 68  1  0
 37 69  1  0
 37 70  1  0
 38 71  1  0
 38 72  1  0
M  END
>  <meeko>  (10)
{"is_sidechain": false}

>  <source_group>  (10)
FYN canonical

>  <source_system>  (10)
FYN_saracatinib

>  <source_run>  (10)
vina_seed8831_ex64

>  <source_seed>  (10)
8831

>  <vina_pose_rank>  (10)
10

>  <vina_affinity_kcal_mol>  (10)
-8.4830000000000005

>  <vina_rmsd_to_crystal_angstrom>  (10)
7.8327999999999998

$$$$
