FYN_saracatinib__vina_seed8831_ex64__pose01


 40 45  0  0  0  0  0  0  0  0999 V2000
  -10.0190   15.8530   -7.4340 C   0  0  0  0  0  0  0  0  0  0  0  0
  -11.1090   16.5900   -7.6790 C   0  0  0  0  0  0  0  0  0  0  0  0
  -11.8760   16.3710   -8.7560 C   0  0  0  0  0  0  0  0  0  0  0  0
  -11.6050   15.3910   -9.6640 C   0  0  0  0  0  0  0  0  0  0  0  0
  -10.5030   14.6240   -9.4320 C   0  0  0  0  0  0  0  0  0  0  0  0
   -9.7570   14.8880   -8.3350 C   0  0  0  0  0  0  0  0  0  0  0  0
  -12.4650   15.2820  -10.7170 C   0  0  0  0  0  0  0  0  0  0  0  0
  -13.4510   16.0920  -10.7620 N   0  0  0  0  0  0  0  0  0  0  0  0
  -13.6140   16.9650   -9.8650 C   0  0  0  0  0  0  0  0  0  0  0  0
  -12.8740   17.1440   -8.8640 N   0  0  0  0  0  0  0  0  0  0  0  0
  -13.0610   17.8460   -8.1990 H   0  0  0  0  0  0  0  0  0  0  0  0
  -12.5370   14.4990  -11.7300 N   0  0  0  0  0  0  0  0  0  0  0  0
  -11.6200   14.0170  -11.9240 H   0  0  0  0  0  0  0  0  0  0  0  0
  -13.4170   14.1320  -12.5840 C   0  0  0  0  0  0  0  0  0  0  0  0
  -14.1510   13.0040  -12.3640 C   0  0  0  0  0  0  0  0  0  0  0  0
  -13.9790   11.9920  -10.9580 Cl  0  0  0  0  0  0  0  0  0  0  0  0
  -15.0940   12.6000  -13.2370 C   0  0  0  0  0  0  0  0  0  0  0  0
  -15.3460   13.2790  -14.3640 C   0  0  0  0  0  0  0  0  0  0  0  0
  -14.6290   14.3830  -14.5950 C   0  0  0  0  0  0  0  0  0  0  0  0
  -13.6920   14.7940  -13.7310 C   0  0  0  0  0  0  0  0  0  0  0  0
  -13.1660   15.8270  -14.1520 O   0  0  0  0  0  0  0  0  0  0  0  0
  -13.7210   16.1330  -15.4300 C   0  0  0  0  0  0  0  0  0  0  0  0
  -14.7170   15.1270  -15.5700 O   0  0  0  0  0  0  0  0  0  0  0  0
   -9.2220   16.0510   -6.3340 O   0  0  0  0  0  0  0  0  0  0  0  0
   -7.8750   15.6660   -6.4750 C   0  0  0  0  0  0  0  0  0  0  0  0
   -7.4320   14.6730   -5.3870 C   0  0  0  0  0  0  0  0  0  0  0  0
   -9.3220   13.7690   -0.1460 C   0  0  0  0  0  0  0  0  0  0  0  0
   -8.5700   13.7870   -1.3890 N   0  0  0  0  0  0  0  0  0  0  0  0
   -9.3930   13.3000   -2.4810 C   0  0  0  0  0  0  0  0  0  0  0  0
   -8.6530   13.3640   -3.8250 C   0  0  0  0  0  0  0  0  0  0  0  0
   -8.1790   14.7090   -4.1350 N   0  0  0  0  0  0  0  0  0  0  0  0
   -7.3490   15.1640   -3.0290 C   0  0  0  0  0  0  0  0  0  0  0  0
   -8.1090   15.1310   -1.6890 C   0  0  0  0  0  0  0  0  0  0  0  0
  -10.1240   13.6150  -10.2980 O   0  0  0  0  0  0  0  0  0  0  0  0
  -10.0450   12.2650   -9.9100 C   0  0  0  0  0  0  0  0  0  0  0  0
  -11.1000   11.8640   -8.8780 C   0  0  0  0  0  0  0  0  0  0  0  0
  -11.2100   10.3470   -8.7640 C   0  0  0  0  0  0  0  0  0  0  0  0
  -11.4920    9.7700  -10.0160 O   0  0  0  0  0  0  0  0  0  0  0  0
  -10.4170    9.9640  -10.8950 C   0  0  0  0  0  0  0  0  0  0  0  0
  -10.2580   11.4500  -11.1960 C   0  0  0  0  0  0  0  0  0  0  0  0
 27 28  1  0
 28 29  1  0
 29 30  1  0
 30 31  1  0
 31 26  1  0
 26 25  1  0
 25 24  1  0
 24  1  1  0
  1  2  2  0
  2  3  1  0
  3  4  2  0
  4  5  1  0
  5 34  1  0
 34 35  1  0
 35 36  1  0
 36 37  1  0
 37 38  1  0
 38 39  1  0
 39 40  1  0
  5  6  2  0
  4  7  1  0
  7 12  1  0
 12 14  1  0
 14 15  2  0
 15 16  1  0
 15 17  1  0
 17 18  2  0
 18 19  1  0
 19 20  2  0
 20 21  1  0
 21 22  1  0
 22 23  1  0
  7  8  1  0
  8  9  2  0
  9 10  1  0
 31 32  1  0
 32 33  1  0
 33 28  1  0
  6  1  1  0
 20 14  1  0
 10  3  1  0
 40 35  1  0
 23 19  1  0
 12 13  1  0
 10 11  1  0
M  END
> <meeko>
{"is_sidechain": false}

> <source_group>
FYN canonical

> <source_system>
FYN_saracatinib

> <source_run>
vina_seed8831_ex64

> <source_seed>
8831

> <vina_pose_rank>
1

> <vina_affinity_kcal_mol>
-9.1999999999999993

> <vina_rmsd_to_crystal_angstrom>
1.9778

> <minimizedAffinity>
-9.20210

> <CNNscore>
0.5607129931

> <CNNaffinity>
7.5571227074

> <CNN_VS>
4.2373766899

> <CNNaffinity_variance>
0.1412462592

$$$$
FYN_saracatinib__vina_seed8831_ex64__pose02


 40 45  0  0  0  0  0  0  0  0999 V2000
  -10.1420   15.9050   -7.3960 C   0  0  0  0  0  0  0  0  0  0  0  0
  -11.2360   16.6190   -7.6810 C   0  0  0  0  0  0  0  0  0  0  0  0
  -11.9470   16.3980   -8.7960 C   0  0  0  0  0  0  0  0  0  0  0  0
  -11.6110   15.4390   -9.7030 C   0  0  0  0  0  0  0  0  0  0  0  0
  -10.5030   14.6950   -9.4310 C   0  0  0  0  0  0  0  0  0  0  0  0
   -9.8150   14.9590   -8.2970 C   0  0  0  0  0  0  0  0  0  0  0  0
  -12.4190   15.3250  -10.7960 C   0  0  0  0  0  0  0  0  0  0  0  0
  -13.4210   16.1130  -10.8760 N   0  0  0  0  0  0  0  0  0  0  0  0
  -13.6470   16.9680   -9.9770 C   0  0  0  0  0  0  0  0  0  0  0  0
  -12.9580   17.1490   -8.9390 N   0  0  0  0  0  0  0  0  0  0  0  0
  -13.1920   17.8380   -8.2740 H   0  0  0  0  0  0  0  0  0  0  0  0
  -12.4250   14.5560  -11.8220 N   0  0  0  0  0  0  0  0  0  0  0  0
  -11.4780   14.5000  -12.2810 H   0  0  0  0  0  0  0  0  0  0  0  0
  -13.2650   13.8280  -12.4570 C   0  0  0  0  0  0  0  0  0  0  0  0
  -13.7160   14.2190  -13.6820 C   0  0  0  0  0  0  0  0  0  0  0  0
  -13.2170   15.6840  -14.4800 Cl  0  0  0  0  0  0  0  0  0  0  0  0
  -14.5900   13.4670  -14.3810 C   0  0  0  0  0  0  0  0  0  0  0  0
  -15.0610   12.3090  -13.9000 C   0  0  0  0  0  0  0  0  0  0  0  0
  -14.6310   11.9170  -12.6980 C   0  0  0  0  0  0  0  0  0  0  0  0
  -13.7620   12.6560  -11.9970 C   0  0  0  0  0  0  0  0  0  0  0  0
  -13.5120   12.0990  -10.9270 O   0  0  0  0  0  0  0  0  0  0  0  0
  -14.3080   10.9180  -10.8320 C   0  0  0  0  0  0  0  0  0  0  0  0
  -14.9550   10.8920  -12.0990 O   0  0  0  0  0  0  0  0  0  0  0  0
   -9.4010   16.1050   -6.2570 O   0  0  0  0  0  0  0  0  0  0  0  0
   -8.0160   15.8890   -6.3800 C   0  0  0  0  0  0  0  0  0  0  0  0
   -7.4770   14.9130   -5.3200 C   0  0  0  0  0  0  0  0  0  0  0  0
   -9.2100   13.7520   -0.0750 C   0  0  0  0  0  0  0  0  0  0  0  0
   -8.4880   13.8430   -1.3330 N   0  0  0  0  0  0  0  0  0  0  0  0
   -9.3190   13.3640   -2.4230 C   0  0  0  0  0  0  0  0  0  0  0  0
   -8.6130   13.5040   -3.7800 C   0  0  0  0  0  0  0  0  0  0  0  0
   -8.1960   14.8760   -4.0510 N   0  0  0  0  0  0  0  0  0  0  0  0
   -7.3580   15.3220   -2.9480 C   0  0  0  0  0  0  0  0  0  0  0  0
   -8.0840   15.2120   -1.5940 C   0  0  0  0  0  0  0  0  0  0  0  0
  -10.0610   13.7080  -10.2920 O   0  0  0  0  0  0  0  0  0  0  0  0
   -9.8890   12.3680   -9.8950 C   0  0  0  0  0  0  0  0  0  0  0  0
  -10.9390   11.8910   -8.8910 C   0  0  0  0  0  0  0  0  0  0  0  0
  -10.9370   10.3700   -8.7740 C   0  0  0  0  0  0  0  0  0  0  0  0
  -11.1390    9.7710  -10.0310 O   0  0  0  0  0  0  0  0  0  0  0  0
  -10.0570   10.0430  -10.8800 C   0  0  0  0  0  0  0  0  0  0  0  0
  -10.0040   11.5370  -11.1840 C   0  0  0  0  0  0  0  0  0  0  0  0
 27 28  1  0
 28 29  1  0
 29 30  1  0
 30 31  1  0
 31 26  1  0
 26 25  1  0
 25 24  1  0
 24  1  1  0
  1  2  2  0
  2  3  1  0
  3  4  2  0
  4  5  1  0
  5 34  1  0
 34 35  1  0
 35 36  1  0
 36 37  1  0
 37 38  1  0
 38 39  1  0
 39 40  1  0
  5  6  2  0
  4  7  1  0
  7 12  1  0
 12 14  1  0
 14 15  2  0
 15 16  1  0
 15 17  1  0
 17 18  2  0
 18 19  1  0
 19 20  2  0
 20 21  1  0
 21 22  1  0
 22 23  1  0
  7  8  1  0
  8  9  2  0
  9 10  1  0
 31 32  1  0
 32 33  1  0
 33 28  1  0
  6  1  1  0
 20 14  1  0
 10  3  1  0
 40 35  1  0
 23 19  1  0
 12 13  1  0
 10 11  1  0
M  END
> <meeko>
{"is_sidechain": false}

> <source_group>
FYN canonical

> <source_system>
FYN_saracatinib

> <source_run>
vina_seed8831_ex64

> <source_seed>
8831

> <vina_pose_rank>
2

> <vina_affinity_kcal_mol>
-9.0440000000000005

> <vina_rmsd_to_crystal_angstrom>
2.7602000000000002

> <minimizedAffinity>
-8.95450

> <CNNscore>
0.7419447899

> <CNNaffinity>
7.6901030540

> <CNN_VS>
5.7056317329

> <CNNaffinity_variance>
0.1477055103

$$$$
FYN_saracatinib__vina_seed8831_ex64__pose03


 40 45  0  0  0  0  0  0  0  0999 V2000
  -10.2060   15.6650   -7.7470 C   0  0  0  0  0  0  0  0  0  0  0  0
  -11.2850   16.4240   -7.9680 C   0  0  0  0  0  0  0  0  0  0  0  0
  -12.0580   16.2460   -9.0500 C   0  0  0  0  0  0  0  0  0  0  0  0
  -11.8040   15.2870   -9.9830 C   0  0  0  0  0  0  0  0  0  0  0  0
  -10.7140   14.4970   -9.7750 C   0  0  0  0  0  0  0  0  0  0  0  0
   -9.9620   14.7200   -8.6730 C   0  0  0  0  0  0  0  0  0  0  0  0
  -12.6690   15.2180  -11.0360 C   0  0  0  0  0  0  0  0  0  0  0  0
  -13.6420   16.0450  -11.0580 N   0  0  0  0  0  0  0  0  0  0  0  0
  -13.7900   16.8960  -10.1380 C   0  0  0  0  0  0  0  0  0  0  0  0
  -13.0450   17.0370   -9.1340 N   0  0  0  0  0  0  0  0  0  0  0  0
  -13.2190   17.7250   -8.4510 H   0  0  0  0  0  0  0  0  0  0  0  0
  -12.7550   14.4640  -12.0690 N   0  0  0  0  0  0  0  0  0  0  0  0
  -11.8490   13.9670  -12.2740 H   0  0  0  0  0  0  0  0  0  0  0  0
  -13.6400   14.1390  -12.9350 C   0  0  0  0  0  0  0  0  0  0  0  0
  -14.4210   13.0400  -12.7300 C   0  0  0  0  0  0  0  0  0  0  0  0
  -14.3040   12.0110  -11.3310 Cl  0  0  0  0  0  0  0  0  0  0  0  0
  -15.3710   12.6800  -13.6160 C   0  0  0  0  0  0  0  0  0  0  0  0
  -15.5840   13.3770  -14.7400 C   0  0  0  0  0  0  0  0  0  0  0  0
  -14.8220   14.4530  -14.9550 C   0  0  0  0  0  0  0  0  0  0  0  0
  -13.8770   14.8190  -14.0800 C   0  0  0  0  0  0  0  0  0  0  0  0
  -13.3060   15.8330  -14.4870 O   0  0  0  0  0  0  0  0  0  0  0  0
  -13.8360   16.1710  -15.7680 C   0  0  0  0  0  0  0  0  0  0  0  0
  -14.8700   15.2070  -15.9260 O   0  0  0  0  0  0  0  0  0  0  0  0
   -9.4040   15.8220   -6.6430 O   0  0  0  0  0  0  0  0  0  0  0  0
   -8.2510   15.0150   -6.6040 C   0  0  0  0  0  0  0  0  0  0  0  0
   -8.2440   14.0580   -5.4000 C   0  0  0  0  0  0  0  0  0  0  0  0
   -7.3430    9.0990   -7.9410 C   0  0  0  0  0  0  0  0  0  0  0  0
   -7.5710   10.4980   -7.6230 N   0  0  0  0  0  0  0  0  0  0  0  0
   -8.8190   10.6510   -6.8970 C   0  0  0  0  0  0  0  0  0  0  0  0
   -9.0640   12.1100   -6.4860 C   0  0  0  0  0  0  0  0  0  0  0  0
   -7.9690   12.6550   -5.6910 N   0  0  0  0  0  0  0  0  0  0  0  0
   -6.7360   12.4980   -6.4480 C   0  0  0  0  0  0  0  0  0  0  0  0
   -6.4780   11.0270   -6.8270 C   0  0  0  0  0  0  0  0  0  0  0  0
  -10.3530   13.5050  -10.6680 O   0  0  0  0  0  0  0  0  0  0  0  0
  -10.3260   12.1410  -10.3250 C   0  0  0  0  0  0  0  0  0  0  0  0
  -11.4430   11.7310   -9.3640 C   0  0  0  0  0  0  0  0  0  0  0  0
  -11.5950   10.2150   -9.3110 C   0  0  0  0  0  0  0  0  0  0  0  0
  -11.8240    9.6890  -10.5960 O   0  0  0  0  0  0  0  0  0  0  0  0
  -10.7000    9.8850  -11.4100 C   0  0  0  0  0  0  0  0  0  0  0  0
  -10.4900   11.3770  -11.6490 C   0  0  0  0  0  0  0  0  0  0  0  0
 27 28  1  0
 28 29  1  0
 29 30  1  0
 30 31  1  0
 31 26  1  0
 26 25  1  0
 25 24  1  0
 24  1  1  0
  1  2  2  0
  2  3  1  0
  3  4  2  0
  4  5  1  0
  5 34  1  0
 34 35  1  0
 35 36  1  0
 36 37  1  0
 37 38  1  0
 38 39  1  0
 39 40  1  0
  5  6  2  0
  4  7  1  0
  7 12  1  0
 12 14  1  0
 14 15  2  0
 15 16  1  0
 15 17  1  0
 17 18  2  0
 18 19  1  0
 19 20  2  0
 20 21  1  0
 21 22  1  0
 22 23  1  0
  7  8  1  0
  8  9  2  0
  9 10  1  0
 31 32  1  0
 32 33  1  0
 33 28  1  0
  6  1  1  0
 20 14  1  0
 10  3  1  0
 40 35  1  0
 23 19  1  0
 12 13  1  0
 10 11  1  0
M  END
> <meeko>
{"is_sidechain": false}

> <source_group>
FYN canonical

> <source_system>
FYN_saracatinib

> <source_run>
vina_seed8831_ex64

> <source_seed>
8831

> <vina_pose_rank>
3

> <vina_affinity_kcal_mol>
-8.9139999999999997

> <vina_rmsd_to_crystal_angstrom>
3.3902000000000001

> <minimizedAffinity>
-8.66477

> <CNNscore>
0.3789485395

> <CNNaffinity>
7.3407931328

> <CNN_VS>
2.7817828655

> <CNNaffinity_variance>
0.1915986538

$$$$
FYN_saracatinib__vina_seed8831_ex64__pose04


 40 45  0  0  0  0  0  0  0  0999 V2000
  -10.7060   12.9930   -7.7320 C   0  0  0  0  0  0  0  0  0  0  0  0
  -11.1640   14.2370   -7.9110 C   0  0  0  0  0  0  0  0  0  0  0  0
  -11.7040   14.6240   -9.0760 C   0  0  0  0  0  0  0  0  0  0  0  0
  -11.8280   13.7860  -10.1430 C   0  0  0  0  0  0  0  0  0  0  0  0
  -11.3740   12.5120   -9.9810 C   0  0  0  0  0  0  0  0  0  0  0  0
  -10.8310   12.1700   -8.7900 C   0  0  0  0  0  0  0  0  0  0  0  0
  -12.3920   14.3120  -11.2680 C   0  0  0  0  0  0  0  0  0  0  0  0
  -12.7630   15.5320  -11.2280 N   0  0  0  0  0  0  0  0  0  0  0  0
  -12.6060   16.2240  -10.1850 C   0  0  0  0  0  0  0  0  0  0  0  0
  -12.0950   15.8290   -9.1050 N   0  0  0  0  0  0  0  0  0  0  0  0
  -12.0020   16.4240   -8.3260 H   0  0  0  0  0  0  0  0  0  0  0  0
  -12.6720   13.8400  -12.4260 N   0  0  0  0  0  0  0  0  0  0  0  0
  -11.8470   13.3560  -12.8680 H   0  0  0  0  0  0  0  0  0  0  0  0
  -13.6830   13.7890  -13.2110 C   0  0  0  0  0  0  0  0  0  0  0  0
  -14.6450   12.8420  -13.0200 C   0  0  0  0  0  0  0  0  0  0  0  0
  -14.6050   11.6570  -11.7460 Cl  0  0  0  0  0  0  0  0  0  0  0  0
  -15.7270   12.7720  -13.8200 C   0  0  0  0  0  0  0  0  0  0  0  0
  -15.9020   13.6200  -14.8420 C   0  0  0  0  0  0  0  0  0  0  0  0
  -14.9630   14.5490  -15.0430 C   0  0  0  0  0  0  0  0  0  0  0  0
  -13.8860   14.6280  -14.2520 C   0  0  0  0  0  0  0  0  0  0  0  0
  -13.1640   15.5550  -14.6260 O   0  0  0  0  0  0  0  0  0  0  0  0
  -13.7350   16.1300  -15.8010 C   0  0  0  0  0  0  0  0  0  0  0  0
  -14.9520   15.4040  -15.9270 O   0  0  0  0  0  0  0  0  0  0  0  0
  -10.1560   12.5690   -6.5470 O   0  0  0  0  0  0  0  0  0  0  0  0
   -8.7800   12.2720   -6.5800 C   0  0  0  0  0  0  0  0  0  0  0  0
   -7.9640   13.1630   -5.6290 C   0  0  0  0  0  0  0  0  0  0  0  0
   -8.3940   18.6840   -4.5370 C   0  0  0  0  0  0  0  0  0  0  0  0
   -7.9350   17.3250   -4.7640 N   0  0  0  0  0  0  0  0  0  0  0  0
   -8.5810   16.4160   -3.8340 C   0  0  0  0  0  0  0  0  0  0  0  0
   -8.1700   14.9580   -4.0850 C   0  0  0  0  0  0  0  0  0  0  0  0
   -8.4430   14.5300   -5.4530 N   0  0  0  0  0  0  0  0  0  0  0  0
   -7.7750   15.4520   -6.3600 C   0  0  0  0  0  0  0  0  0  0  0  0
   -8.2190   16.9090   -6.1260 C   0  0  0  0  0  0  0  0  0  0  0  0
  -11.4320   11.5830  -11.0040 O   0  0  0  0  0  0  0  0  0  0  0  0
  -10.8890   10.2900  -10.8940 C   0  0  0  0  0  0  0  0  0  0  0  0
  -11.8980    9.1780  -11.1850 C   0  0  0  0  0  0  0  0  0  0  0  0
  -11.1960    7.8430  -11.4100 C   0  0  0  0  0  0  0  0  0  0  0  0
  -10.2500    7.9430  -12.4470 O   0  0  0  0  0  0  0  0  0  0  0  0
   -9.2120    8.8100  -12.0780 C   0  0  0  0  0  0  0  0  0  0  0  0
   -9.7530   10.2280  -11.9280 C   0  0  0  0  0  0  0  0  0  0  0  0
 27 28  1  0
 28 29  1  0
 29 30  1  0
 30 31  1  0
 31 26  1  0
 26 25  1  0
 25 24  1  0
 24  1  1  0
  1  2  2  0
  2  3  1  0
  3  4  2  0
  4  5  1  0
  5 34  1  0
 34 35  1  0
 35 36  1  0
 36 37  1  0
 37 38  1  0
 38 39  1  0
 39 40  1  0
  5  6  2  0
  4  7  1  0
  7 12  1  0
 12 14  1  0
 14 15  2  0
 15 16  1  0
 15 17  1  0
 17 18  2  0
 18 19  1  0
 19 20  2  0
 20 21  1  0
 21 22  1  0
 22 23  1  0
  7  8  1  0
  8  9  2  0
  9 10  1  0
 31 32  1  0
 32 33  1  0
 33 28  1  0
  6  1  1  0
 20 14  1  0
 10  3  1  0
 40 35  1  0
 23 19  1  0
 12 13  1  0
 10 11  1  0
M  END
> <meeko>
{"is_sidechain": false}

> <source_group>
FYN canonical

> <source_system>
FYN_saracatinib

> <source_run>
vina_seed8831_ex64

> <source_seed>
8831

> <vina_pose_rank>
4

> <vina_affinity_kcal_mol>
-8.875

> <vina_rmsd_to_crystal_angstrom>
2.8182999999999998

> <minimizedAffinity>
-8.77860

> <CNNscore>
0.2512443066

> <CNNaffinity>
7.1802668571

> <CNN_VS>
1.8040012121

> <CNNaffinity_variance>
0.1950971335

$$$$
FYN_saracatinib__vina_seed8831_ex64__pose05


 40 45  0  0  0  0  0  0  0  0999 V2000
  -11.3220   15.6860   -9.0260 C   0  0  0  0  0  0  0  0  0  0  0  0
  -12.3830   16.4820   -9.2010 C   0  0  0  0  0  0  0  0  0  0  0  0
  -13.2540   16.2790  -10.2000 C   0  0  0  0  0  0  0  0  0  0  0  0
  -13.1250   15.2570  -11.0910 C   0  0  0  0  0  0  0  0  0  0  0  0
  -12.0560   14.4290  -10.9290 C   0  0  0  0  0  0  0  0  0  0  0  0
  -11.2000   14.6790   -9.9110 C   0  0  0  0  0  0  0  0  0  0  0  0
  -14.0810   15.1700  -12.0610 C   0  0  0  0  0  0  0  0  0  0  0  0
  -15.0150   16.0400  -12.0490 N   0  0  0  0  0  0  0  0  0  0  0  0
  -15.0460   16.9480  -11.1740 C   0  0  0  0  0  0  0  0  0  0  0  0
  -14.2100   17.1100  -10.2480 N   0  0  0  0  0  0  0  0  0  0  0  0
  -14.2940   17.8430   -9.5950 H   0  0  0  0  0  0  0  0  0  0  0  0
  -14.2890   14.3630  -13.0350 N   0  0  0  0  0  0  0  0  0  0  0  0
  -14.0950   13.3620  -12.7690 H   0  0  0  0  0  0  0  0  0  0  0  0
  -14.6710   14.4280  -14.2550 C   0  0  0  0  0  0  0  0  0  0  0  0
  -13.9470   15.1500  -15.1570 C   0  0  0  0  0  0  0  0  0  0  0  0
  -12.4910   16.0180  -14.7640 Cl  0  0  0  0  0  0  0  0  0  0  0  0
  -14.3150   15.2260  -16.4510 C   0  0  0  0  0  0  0  0  0  0  0  0
  -15.4120   14.6050  -16.9080 C   0  0  0  0  0  0  0  0  0  0  0  0
  -16.1330   13.9000  -16.0320 C   0  0  0  0  0  0  0  0  0  0  0  0
  -15.7740   13.8170  -14.7450 C   0  0  0  0  0  0  0  0  0  0  0  0
  -16.5840   13.1170  -14.1330 O   0  0  0  0  0  0  0  0  0  0  0  0
  -17.6240   12.7320  -15.0320 C   0  0  0  0  0  0  0  0  0  0  0  0
  -17.1640   13.2710  -16.2660 O   0  0  0  0  0  0  0  0  0  0  0  0
  -10.4190   15.8670   -8.0070 O   0  0  0  0  0  0  0  0  0  0  0  0
   -9.4170   14.8850   -7.8940 C   0  0  0  0  0  0  0  0  0  0  0  0
   -9.7830   13.7860   -6.8820 C   0  0  0  0  0  0  0  0  0  0  0  0
   -9.3890    9.0000   -9.8490 C   0  0  0  0  0  0  0  0  0  0  0  0
   -9.5660   10.3720   -9.4050 N   0  0  0  0  0  0  0  0  0  0  0  0
  -10.6160   10.4440   -8.4040 C   0  0  0  0  0  0  0  0  0  0  0  0
  -10.7910   11.8700   -7.8630 C   0  0  0  0  0  0  0  0  0  0  0  0
   -9.5520   12.4100   -7.3100 N   0  0  0  0  0  0  0  0  0  0  0  0
   -8.5250   12.3350   -8.3380 C   0  0  0  0  0  0  0  0  0  0  0  0
   -8.3310   10.8950   -8.8520 C   0  0  0  0  0  0  0  0  0  0  0  0
  -11.8170   13.3720  -11.7870 O   0  0  0  0  0  0  0  0  0  0  0  0
  -11.9470   12.0270  -11.3970 C   0  0  0  0  0  0  0  0  0  0  0  0
  -13.2970   11.7050  -10.7550 C   0  0  0  0  0  0  0  0  0  0  0  0
  -13.5290   10.2000  -10.6860 C   0  0  0  0  0  0  0  0  0  0  0  0
  -13.4330    9.6190  -11.9640 O   0  0  0  0  0  0  0  0  0  0  0  0
  -12.1250    9.7340  -12.4550 C   0  0  0  0  0  0  0  0  0  0  0  0
  -11.7890   11.2040  -12.6860 C   0  0  0  0  0  0  0  0  0  0  0  0
 27 28  1  0
 28 29  1  0
 29 30  1  0
 30 31  1  0
 31 26  1  0
 26 25  1  0
 25 24  1  0
 24  1  1  0
  1  2  2  0
  2  3  1  0
  3  4  2  0
  4  5  1  0
  5 34  1  0
 34 35  1  0
 35 36  1  0
 36 37  1  0
 37 38  1  0
 38 39  1  0
 39 40  1  0
  5  6  2  0
  4  7  1  0
  7 12  1  0
 12 14  1  0
 14 15  2  0
 15 16  1  0
 15 17  1  0
 17 18  2  0
 18 19  1  0
 19 20  2  0
 20 21  1  0
 21 22  1  0
 22 23  1  0
  7  8  1  0
  8  9  2  0
  9 10  1  0
 31 32  1  0
 32 33  1  0
 33 28  1  0
  6  1  1  0
 20 14  1  0
 10  3  1  0
 40 35  1  0
 23 19  1  0
 12 13  1  0
 10 11  1  0
M  END
> <meeko>
{"is_sidechain": false}

> <source_group>
FYN canonical

> <source_system>
FYN_saracatinib

> <source_run>
vina_seed8831_ex64

> <source_seed>
8831

> <vina_pose_rank>
5

> <vina_affinity_kcal_mol>
-8.8550000000000004

> <vina_rmsd_to_crystal_angstrom>
4.6185999999999998

> <minimizedAffinity>
-8.58623

> <CNNscore>
0.7638644576

> <CNNaffinity>
7.7959694862

> <CNN_VS>
5.9550638199

> <CNNaffinity_variance>
0.3486798704

$$$$
FYN_saracatinib__vina_seed8831_ex64__pose06


 40 45  0  0  0  0  0  0  0  0999 V2000
   -9.9800   15.6320   -7.3960 C   0  0  0  0  0  0  0  0  0  0  0  0
  -11.0410   16.4140   -7.6260 C   0  0  0  0  0  0  0  0  0  0  0  0
  -11.8010   16.2610   -8.7200 C   0  0  0  0  0  0  0  0  0  0  0  0
  -11.5520   15.3060   -9.6600 C   0  0  0  0  0  0  0  0  0  0  0  0
  -10.4800   14.4940   -9.4440 C   0  0  0  0  0  0  0  0  0  0  0  0
   -9.7400   14.6910   -8.3290 C   0  0  0  0  0  0  0  0  0  0  0  0
  -12.4020   15.2640  -10.7260 C   0  0  0  0  0  0  0  0  0  0  0  0
  -13.3590   16.1100  -10.7530 N   0  0  0  0  0  0  0  0  0  0  0  0
  -13.5040   16.9550   -9.8270 C   0  0  0  0  0  0  0  0  0  0  0  0
  -12.7710   17.0710   -8.8110 N   0  0  0  0  0  0  0  0  0  0  0  0
  -12.9420   17.7560   -8.1240 H   0  0  0  0  0  0  0  0  0  0  0  0
  -12.4870   14.5220  -11.7670 N   0  0  0  0  0  0  0  0  0  0  0  0
  -11.5570   14.1050  -12.0340 H   0  0  0  0  0  0  0  0  0  0  0  0
  -13.3930   14.1380  -12.5870 C   0  0  0  0  0  0  0  0  0  0  0  0
  -14.1040   13.0030  -12.3320 C   0  0  0  0  0  0  0  0  0  0  0  0
  -13.8700   12.0030  -10.9270 Cl  0  0  0  0  0  0  0  0  0  0  0  0
  -15.0730   12.5810  -13.1680 C   0  0  0  0  0  0  0  0  0  0  0  0
  -15.3740   13.2490  -14.2900 C   0  0  0  0  0  0  0  0  0  0  0  0
  -14.6800   14.3590  -14.5540 C   0  0  0  0  0  0  0  0  0  0  0  0
  -13.7170   14.7880  -13.7280 C   0  0  0  0  0  0  0  0  0  0  0  0
  -13.2200   15.8240  -14.1740 O   0  0  0  0  0  0  0  0  0  0  0  0
  -13.8240   16.1140  -15.4340 C   0  0  0  0  0  0  0  0  0  0  0  0
  -14.8130   15.0950  -15.5310 O   0  0  0  0  0  0  0  0  0  0  0  0
   -9.1910   15.7630   -6.2800 O   0  0  0  0  0  0  0  0  0  0  0  0
   -8.2150   16.7750   -6.3350 C   0  0  0  0  0  0  0  0  0  0  0  0
   -7.3780   16.8540   -5.0460 C   0  0  0  0  0  0  0  0  0  0  0  0
   -7.2030   22.4280   -4.1730 C   0  0  0  0  0  0  0  0  0  0  0  0
   -7.5270   21.0790   -4.6050 N   0  0  0  0  0  0  0  0  0  0  0  0
   -6.3880   20.4800   -5.2770 C   0  0  0  0  0  0  0  0  0  0  0  0
   -6.6700   19.0290   -5.6930 C   0  0  0  0  0  0  0  0  0  0  0  0
   -7.0630   18.1940   -4.5620 N   0  0  0  0  0  0  0  0  0  0  0  0
   -8.2110   18.8130   -3.9160 C   0  0  0  0  0  0  0  0  0  0  0  0
   -7.9090   20.2570   -3.4710 C   0  0  0  0  0  0  0  0  0  0  0  0
  -10.1250   13.5040  -10.3410 O   0  0  0  0  0  0  0  0  0  0  0  0
   -9.9850   12.1530   -9.9720 C   0  0  0  0  0  0  0  0  0  0  0  0
  -10.9800   11.7070   -8.9000 C   0  0  0  0  0  0  0  0  0  0  0  0
  -11.0350   10.1860   -8.8000 C   0  0  0  0  0  0  0  0  0  0  0  0
  -11.3540    9.6130  -10.0450 O   0  0  0  0  0  0  0  0  0  0  0  0
  -10.3250    9.8510  -10.9680 C   0  0  0  0  0  0  0  0  0  0  0  0
  -10.2280   11.3450  -11.2580 C   0  0  0  0  0  0  0  0  0  0  0  0
 27 28  1  0
 28 29  1  0
 29 30  1  0
 30 31  1  0
 31 26  1  0
 26 25  1  0
 25 24  1  0
 24  1  1  0
  1  2  2  0
  2  3  1  0
  3  4  2  0
  4  5  1  0
  5 34  1  0
 34 35  1  0
 35 36  1  0
 36 37  1  0
 37 38  1  0
 38 39  1  0
 39 40  1  0
  5  6  2  0
  4  7  1  0
  7 12  1  0
 12 14  1  0
 14 15  2  0
 15 16  1  0
 15 17  1  0
 17 18  2  0
 18 19  1  0
 19 20  2  0
 20 21  1  0
 21 22  1  0
 22 23  1  0
  7  8  1  0
  8  9  2  0
  9 10  1  0
 31 32  1  0
 32 33  1  0
 33 28  1  0
  6  1  1  0
 20 14  1  0
 10  3  1  0
 40 35  1  0
 23 19  1  0
 12 13  1  0
 10 11  1  0
M  END
> <meeko>
{"is_sidechain": false}

> <source_group>
FYN canonical

> <source_system>
FYN_saracatinib

> <source_run>
vina_seed8831_ex64

> <source_seed>
8831

> <vina_pose_rank>
6

> <vina_affinity_kcal_mol>
-8.8360000000000003

> <vina_rmsd_to_crystal_angstrom>
2.1572

> <minimizedAffinity>
-8.96625

> <CNNscore>
0.5844966173

> <CNNaffinity>
7.3403282166

> <CNN_VS>
4.2903971672

> <CNNaffinity_variance>
0.1929063350

$$$$
FYN_saracatinib__vina_seed8831_ex64__pose07


 40 45  0  0  0  0  0  0  0  0999 V2000
  -10.1190   15.9010   -7.3910 C   0  0  0  0  0  0  0  0  0  0  0  0
  -11.2260   16.5990   -7.6690 C   0  0  0  0  0  0  0  0  0  0  0  0
  -11.9440   16.3640   -8.7770 C   0  0  0  0  0  0  0  0  0  0  0  0
  -11.6020   15.4060   -9.6830 C   0  0  0  0  0  0  0  0  0  0  0  0
  -10.4820   14.6780   -9.4180 C   0  0  0  0  0  0  0  0  0  0  0  0
   -9.7880   14.9570   -8.2910 C   0  0  0  0  0  0  0  0  0  0  0  0
  -12.4180   15.2760  -10.7690 C   0  0  0  0  0  0  0  0  0  0  0  0
  -13.4310   16.0490  -10.8430 N   0  0  0  0  0  0  0  0  0  0  0  0
  -13.6610   16.9050   -9.9450 C   0  0  0  0  0  0  0  0  0  0  0  0
  -12.9660   17.1000   -8.9140 N   0  0  0  0  0  0  0  0  0  0  0  0
  -13.2040   17.7880   -8.2500 H   0  0  0  0  0  0  0  0  0  0  0  0
  -12.4220   14.5030  -11.7910 N   0  0  0  0  0  0  0  0  0  0  0  0
  -11.4670   14.4190  -12.2290 H   0  0  0  0  0  0  0  0  0  0  0  0
  -13.2680   13.7940  -12.4420 C   0  0  0  0  0  0  0  0  0  0  0  0
  -13.7130   14.2140  -13.6600 C   0  0  0  0  0  0  0  0  0  0  0  0
  -13.1980   15.6890  -14.4280 Cl  0  0  0  0  0  0  0  0  0  0  0  0
  -14.5910   13.4830  -14.3750 C   0  0  0  0  0  0  0  0  0  0  0  0
  -15.0740   12.3200  -13.9180 C   0  0  0  0  0  0  0  0  0  0  0  0
  -14.6510   11.9010  -12.7220 C   0  0  0  0  0  0  0  0  0  0  0  0
  -13.7760   12.6190  -12.0060 C   0  0  0  0  0  0  0  0  0  0  0  0
  -13.5340   12.0380  -10.9460 O   0  0  0  0  0  0  0  0  0  0  0  0
  -14.3410   10.8630  -10.8750 C   0  0  0  0  0  0  0  0  0  0  0  0
  -14.9850   10.8680  -12.1440 O   0  0  0  0  0  0  0  0  0  0  0  0
   -9.3720   16.1170   -6.2590 O   0  0  0  0  0  0  0  0  0  0  0  0
   -8.4020   17.1330   -6.3490 C   0  0  0  0  0  0  0  0  0  0  0  0
   -7.4240   17.1180   -5.1630 C   0  0  0  0  0  0  0  0  0  0  0  0
   -7.1600   22.6140   -3.9040 C   0  0  0  0  0  0  0  0  0  0  0  0
   -7.5030   21.3050   -4.4310 N   0  0  0  0  0  0  0  0  0  0  0  0
   -6.3660   20.7320   -5.1300 C   0  0  0  0  0  0  0  0  0  0  0  0
   -6.6690   19.3190   -5.6480 C   0  0  0  0  0  0  0  0  0  0  0  0
   -7.0910   18.4150   -4.5830 N   0  0  0  0  0  0  0  0  0  0  0  0
   -8.2360   19.0100   -3.9100 C   0  0  0  0  0  0  0  0  0  0  0  0
   -7.9150   20.4130   -3.3620 C   0  0  0  0  0  0  0  0  0  0  0  0
  -10.0330   13.6930  -10.2790 O   0  0  0  0  0  0  0  0  0  0  0  0
   -9.8760   12.3510   -9.8880 C   0  0  0  0  0  0  0  0  0  0  0  0
  -10.9220   11.8830   -8.8760 C   0  0  0  0  0  0  0  0  0  0  0  0
  -10.9390   10.3630   -8.7640 C   0  0  0  0  0  0  0  0  0  0  0  0
  -11.1600    9.7700  -10.0200 O   0  0  0  0  0  0  0  0  0  0  0  0
  -10.0830   10.0310  -10.8790 C   0  0  0  0  0  0  0  0  0  0  0  0
  -10.0130   11.5250  -11.1780 C   0  0  0  0  0  0  0  0  0  0  0  0
 27 28  1  0
 28 29  1  0
 29 30  1  0
 30 31  1  0
 31 26  1  0
 26 25  1  0
 25 24  1  0
 24  1  1  0
  1  2  2  0
  2  3  1  0
  3  4  2  0
  4  5  1  0
  5 34  1  0
 34 35  1  0
 35 36  1  0
 36 37  1  0
 37 38  1  0
 38 39  1  0
 39 40  1  0
  5  6  2  0
  4  7  1  0
  7 12  1  0
 12 14  1  0
 14 15  2  0
 15 16  1  0
 15 17  1  0
 17 18  2  0
 18 19  1  0
 19 20  2  0
 20 21  1  0
 21 22  1  0
 22 23  1  0
  7  8  1  0
  8  9  2  0
  9 10  1  0
 31 32  1  0
 32 33  1  0
 33 28  1  0
  6  1  1  0
 20 14  1  0
 10  3  1  0
 40 35  1  0
 23 19  1  0
 12 13  1  0
 10 11  1  0
M  END
> <meeko>
{"is_sidechain": false}

> <source_group>
FYN canonical

> <source_system>
FYN_saracatinib

> <source_run>
vina_seed8831_ex64

> <source_seed>
8831

> <vina_pose_rank>
7

> <vina_affinity_kcal_mol>
-8.7439999999999998

> <vina_rmsd_to_crystal_angstrom>
2.9365000000000001

> <minimizedAffinity>
-8.76578

> <CNNscore>
0.8530179262

> <CNNaffinity>
7.7748360634

> <CNN_VS>
6.6320743561

> <CNNaffinity_variance>
0.3651106656

$$$$
FYN_saracatinib__vina_seed8831_ex64__pose08


 40 45  0  0  0  0  0  0  0  0999 V2000
  -10.4980   16.1330   -7.6030 C   0  0  0  0  0  0  0  0  0  0  0  0
  -11.6000   16.8190   -7.9240 C   0  0  0  0  0  0  0  0  0  0  0  0
  -12.3010   16.5410   -9.0330 C   0  0  0  0  0  0  0  0  0  0  0  0
  -11.9460   15.5480   -9.8960 C   0  0  0  0  0  0  0  0  0  0  0  0
  -10.8310   14.8310   -9.5850 C   0  0  0  0  0  0  0  0  0  0  0  0
  -10.1540   15.1540   -8.4600 C   0  0  0  0  0  0  0  0  0  0  0  0
  -12.7460   15.3750  -10.9880 C   0  0  0  0  0  0  0  0  0  0  0  0
  -13.7570   16.1450  -11.1080 N   0  0  0  0  0  0  0  0  0  0  0  0
  -14.0000   17.0360  -10.2470 C   0  0  0  0  0  0  0  0  0  0  0  0
  -13.3210   17.2710   -9.2150 N   0  0  0  0  0  0  0  0  0  0  0  0
  -13.5680   17.9840   -8.5820 H   0  0  0  0  0  0  0  0  0  0  0  0
  -12.7350   14.5630  -11.9790 N   0  0  0  0  0  0  0  0  0  0  0  0
  -11.7930   14.1100  -12.1100 H   0  0  0  0  0  0  0  0  0  0  0  0
  -13.5540   14.1390  -12.8680 C   0  0  0  0  0  0  0  0  0  0  0  0
  -14.2430   12.9810  -12.6610 C   0  0  0  0  0  0  0  0  0  0  0  0
  -14.0910   12.0010  -11.2310 Cl  0  0  0  0  0  0  0  0  0  0  0  0
  -15.1220   12.5170  -13.5710 C   0  0  0  0  0  0  0  0  0  0  0  0
  -15.3520   13.1650  -14.7210 C   0  0  0  0  0  0  0  0  0  0  0  0
  -14.6790   14.2990  -14.9380 C   0  0  0  0  0  0  0  0  0  0  0  0
  -13.8050   14.7690  -14.0380 C   0  0  0  0  0  0  0  0  0  0  0  0
  -13.3100   15.8190  -14.4520 O   0  0  0  0  0  0  0  0  0  0  0  0
  -13.8160   16.0770  -15.7610 C   0  0  0  0  0  0  0  0  0  0  0  0
  -14.7560   15.0220  -15.9300 O   0  0  0  0  0  0  0  0  0  0  0  0
   -9.7670   16.3930   -6.4690 O   0  0  0  0  0  0  0  0  0  0  0  0
   -8.8630   17.4670   -6.5550 C   0  0  0  0  0  0  0  0  0  0  0  0
   -7.5660   17.2080   -5.7710 C   0  0  0  0  0  0  0  0  0  0  0  0
   -3.4190   13.4610   -6.5610 C   0  0  0  0  0  0  0  0  0  0  0  0
   -4.3510   14.4390   -6.0270 N   0  0  0  0  0  0  0  0  0  0  0  0
   -4.2890   15.6660   -6.8020 C   0  0  0  0  0  0  0  0  0  0  0  0
   -5.3060   16.7040   -6.3070 C   0  0  0  0  0  0  0  0  0  0  0  0
   -6.6730   16.1910   -6.3160 N   0  0  0  0  0  0  0  0  0  0  0  0
   -6.7050   14.9710   -5.5230 C   0  0  0  0  0  0  0  0  0  0  0  0
   -5.7060   13.9200   -6.0460 C   0  0  0  0  0  0  0  0  0  0  0  0
  -10.3700   13.8130  -10.4000 O   0  0  0  0  0  0  0  0  0  0  0  0
  -10.2400   12.4830   -9.9610 C   0  0  0  0  0  0  0  0  0  0  0  0
  -11.3190   12.0620   -8.9630 C   0  0  0  0  0  0  0  0  0  0  0  0
  -11.3570   10.5460   -8.8000 C   0  0  0  0  0  0  0  0  0  0  0  0
  -11.5520    9.9140  -10.0420 O   0  0  0  0  0  0  0  0  0  0  0  0
  -10.4500   10.1340  -10.8800 C   0  0  0  0  0  0  0  0  0  0  0  0
  -10.3530   11.6160  -11.2260 C   0  0  0  0  0  0  0  0  0  0  0  0
 27 28  1  0
 28 29  1  0
 29 30  1  0
 30 31  1  0
 31 26  1  0
 26 25  1  0
 25 24  1  0
 24  1  1  0
  1  2  2  0
  2  3  1  0
  3  4  2  0
  4  5  1  0
  5 34  1  0
 34 35  1  0
 35 36  1  0
 36 37  1  0
 37 38  1  0
 38 39  1  0
 39 40  1  0
  5  6  2  0
  4  7  1  0
  7 12  1  0
 12 14  1  0
 14 15  2  0
 15 16  1  0
 15 17  1  0
 17 18  2  0
 18 19  1  0
 19 20  2  0
 20 21  1  0
 21 22  1  0
 22 23  1  0
  7  8  1  0
  8  9  2  0
  9 10  1  0
 31 32  1  0
 32 33  1  0
 33 28  1  0
  6  1  1  0
 20 14  1  0
 10  3  1  0
 40 35  1  0
 23 19  1  0
 12 13  1  0
 10 11  1  0
M  END
> <meeko>
{"is_sidechain": false}

> <source_group>
FYN canonical

> <source_system>
FYN_saracatinib

> <source_run>
vina_seed8831_ex64

> <source_seed>
8831

> <vina_pose_rank>
8

> <vina_affinity_kcal_mol>
-8.6920000000000002

> <vina_rmsd_to_crystal_angstrom>
2.1751999999999998

> <minimizedAffinity>
-8.71480

> <CNNscore>
0.6489173174

> <CNNaffinity>
7.6419830322

> <CNN_VS>
4.9590148926

> <CNNaffinity_variance>
0.1289444566

$$$$
FYN_saracatinib__vina_seed8831_ex64__pose09


 40 45  0  0  0  0  0  0  0  0999 V2000
  -12.2330   15.9290   -9.8510 C   0  0  0  0  0  0  0  0  0  0  0  0
  -12.0700   16.8810   -8.9260 C   0  0  0  0  0  0  0  0  0  0  0  0
  -11.1290   16.7810   -7.9760 C   0  0  0  0  0  0  0  0  0  0  0  0
  -10.2810   15.7190   -7.8910 C   0  0  0  0  0  0  0  0  0  0  0  0
  -10.4240   14.7390   -8.8260 C   0  0  0  0  0  0  0  0  0  0  0  0
  -11.3920   14.8820   -9.7610 C   0  0  0  0  0  0  0  0  0  0  0  0
   -9.3740   15.7430   -6.8720 C   0  0  0  0  0  0  0  0  0  0  0  0
   -9.3880   16.7540   -6.0920 N   0  0  0  0  0  0  0  0  0  0  0  0
  -10.2160   17.6920   -6.2600 C   0  0  0  0  0  0  0  0  0  0  0  0
  -11.0880   17.7540   -7.1650 N   0  0  0  0  0  0  0  0  0  0  0  0
  -11.7050   18.5180   -7.2390 H   0  0  0  0  0  0  0  0  0  0  0  0
   -8.4400   14.9520   -6.4920 N   0  0  0  0  0  0  0  0  0  0  0  0
   -8.1910   14.2470   -7.2360 H   0  0  0  0  0  0  0  0  0  0  0  0
   -7.7140   14.7700   -5.4540 C   0  0  0  0  0  0  0  0  0  0  0  0
   -6.4150   15.1860   -5.4500 C   0  0  0  0  0  0  0  0  0  0  0  0
   -5.6430   15.9760   -6.7960 Cl  0  0  0  0  0  0  0  0  0  0  0  0
   -5.6290   15.0230   -4.3680 C   0  0  0  0  0  0  0  0  0  0  0  0
   -6.0840   14.4360   -3.2520 C   0  0  0  0  0  0  0  0  0  0  0  0
   -7.3530   14.0190   -3.2450 C   0  0  0  0  0  0  0  0  0  0  0  0
   -8.1420   14.1790   -4.3150 C   0  0  0  0  0  0  0  0  0  0  0  0
   -9.2610   13.7210   -4.0770 O   0  0  0  0  0  0  0  0  0  0  0  0
   -9.2470   13.1370   -2.7750 C   0  0  0  0  0  0  0  0  0  0  0  0
   -7.9380   13.4600   -2.3190 O   0  0  0  0  0  0  0  0  0  0  0  0
  -13.1830   16.0100  -10.8400 O   0  0  0  0  0  0  0  0  0  0  0  0
  -13.2840   14.8910  -11.6870 C   0  0  0  0  0  0  0  0  0  0  0  0
  -13.3260   15.2830  -13.1740 C   0  0  0  0  0  0  0  0  0  0  0  0
  -17.5520   12.5150  -15.6920 C   0  0  0  0  0  0  0  0  0  0  0  0
  -16.3740   12.8990  -14.9330 N   0  0  0  0  0  0  0  0  0  0  0  0
  -15.4200   13.5730  -15.7960 C   0  0  0  0  0  0  0  0  0  0  0  0
  -14.1870   14.0530  -15.0160 C   0  0  0  0  0  0  0  0  0  0  0  0
  -14.5400   14.9270  -13.9020 N   0  0  0  0  0  0  0  0  0  0  0  0
  -15.4860   14.2210  -13.0510 C   0  0  0  0  0  0  0  0  0  0  0  0
  -16.7370   13.7730  -13.8320 C   0  0  0  0  0  0  0  0  0  0  0  0
   -9.6300   13.6080   -8.8230 O   0  0  0  0  0  0  0  0  0  0  0  0
   -9.7650   12.5770   -9.7710 C   0  0  0  0  0  0  0  0  0  0  0  0
   -8.5540   12.4350  -10.6950 C   0  0  0  0  0  0  0  0  0  0  0  0
   -8.5850   11.1060  -11.4420 C   0  0  0  0  0  0  0  0  0  0  0  0
   -8.6550   10.0270  -10.5430 O   0  0  0  0  0  0  0  0  0  0  0  0
   -9.8730   10.0490   -9.8480 C   0  0  0  0  0  0  0  0  0  0  0  0
   -9.9350   11.2840   -8.9560 C   0  0  0  0  0  0  0  0  0  0  0  0
 27 28  1  0
 28 29  1  0
 29 30  1  0
 30 31  1  0
 31 26  1  0
 26 25  1  0
 25 24  1  0
 24  1  1  0
  1  2  2  0
  2  3  1  0
  3  4  2  0
  4  5  1  0
  5 34  1  0
 34 35  1  0
 35 36  1  0
 36 37  1  0
 37 38  1  0
 38 39  1  0
 39 40  1  0
  5  6  2  0
  4  7  1  0
  7 12  1  0
 12 14  1  0
 14 15  2  0
 15 16  1  0
 15 17  1  0
 17 18  2  0
 18 19  1  0
 19 20  2  0
 20 21  1  0
 21 22  1  0
 22 23  1  0
  7  8  1  0
  8  9  2  0
  9 10  1  0
 31 32  1  0
 32 33  1  0
 33 28  1  0
  6  1  1  0
 20 14  1  0
 10  3  1  0
 40 35  1  0
 23 19  1  0
 12 13  1  0
 10 11  1  0
M  END
> <meeko>
{"is_sidechain": false}

> <source_group>
FYN canonical

> <source_system>
FYN_saracatinib

> <source_run>
vina_seed8831_ex64

> <source_seed>
8831

> <vina_pose_rank>
9

> <vina_affinity_kcal_mol>
-8.5899999999999999

> <vina_rmsd_to_crystal_angstrom>
9.5818999999999992

> <minimizedAffinity>
-8.76200

> <CNNscore>
0.1426629871

> <CNNaffinity>
6.0504193306

> <CNN_VS>
0.8631709218

> <CNNaffinity_variance>
1.4973975420

$$$$
FYN_saracatinib__vina_seed8831_ex64__pose10


 40 45  0  0  0  0  0  0  0  0999 V2000
  -11.7310   10.1270  -10.2220 C   0  0  0  0  0  0  0  0  0  0  0  0
  -11.1980    8.9010  -10.2550 C   0  0  0  0  0  0  0  0  0  0  0  0
  -10.9850    8.2600  -11.4130 C   0  0  0  0  0  0  0  0  0  0  0  0
  -11.2870    8.8090  -12.6230 C   0  0  0  0  0  0  0  0  0  0  0  0
  -11.8260   10.0600  -12.6140 C   0  0  0  0  0  0  0  0  0  0  0  0
  -12.0280   10.6630  -11.4200 C   0  0  0  0  0  0  0  0  0  0  0  0
  -11.0230    8.0460  -13.7220 C   0  0  0  0  0  0  0  0  0  0  0  0
  -10.5100    6.8920  -13.5310 N   0  0  0  0  0  0  0  0  0  0  0  0
  -10.2640    6.4770  -12.3650 C   0  0  0  0  0  0  0  0  0  0  0  0
  -10.4760    7.1050  -11.2960 N   0  0  0  0  0  0  0  0  0  0  0  0
  -10.2590    6.7200  -10.4160 H   0  0  0  0  0  0  0  0  0  0  0  0
  -11.1590    8.2250  -14.9840 N   0  0  0  0  0  0  0  0  0  0  0  0
  -12.1220    8.5750  -15.2330 H   0  0  0  0  0  0  0  0  0  0  0  0
  -10.4500    8.0980  -16.0420 C   0  0  0  0  0  0  0  0  0  0  0  0
  -10.8160    7.2020  -17.0030 C   0  0  0  0  0  0  0  0  0  0  0  0
  -12.2240    6.1850  -16.8980 Cl  0  0  0  0  0  0  0  0  0  0  0  0
  -10.0980    7.0550  -18.1340 C   0  0  0  0  0  0  0  0  0  0  0  0
   -8.9900    7.7730  -18.3610 C   0  0  0  0  0  0  0  0  0  0  0  0
   -8.6180    8.6500  -17.4250 C   0  0  0  0  0  0  0  0  0  0  0  0
   -9.3260    8.8050  -16.2990 C   0  0  0  0  0  0  0  0  0  0  0  0
   -8.7950    9.6630  -15.5910 O   0  0  0  0  0  0  0  0  0  0  0  0
   -7.5940   10.0990  -16.2260 C   0  0  0  0  0  0  0  0  0  0  0  0
   -7.6340    9.3880  -17.4580 O   0  0  0  0  0  0  0  0  0  0  0  0
  -11.9520   10.8080   -9.0490 O   0  0  0  0  0  0  0  0  0  0  0  0
  -10.8000   11.2270   -8.3570 C   0  0  0  0  0  0  0  0  0  0  0  0
  -10.3370   12.6300   -8.7840 C   0  0  0  0  0  0  0  0  0  0  0  0
  -13.1920   17.4300   -9.5980 C   0  0  0  0  0  0  0  0  0  0  0  0
  -12.1800   16.3930   -9.4980 N   0  0  0  0  0  0  0  0  0  0  0  0
  -12.1140   15.8860   -8.1390 C   0  0  0  0  0  0  0  0  0  0  0  0
  -11.0990   14.7420   -8.0060 C   0  0  0  0  0  0  0  0  0  0  0  0
  -11.3790   13.6410   -8.9230 N   0  0  0  0  0  0  0  0  0  0  0  0
  -11.4270   14.1780  -10.2750 C   0  0  0  0  0  0  0  0  0  0  0  0
  -12.4720   15.3010  -10.4100 C   0  0  0  0  0  0  0  0  0  0  0  0
  -12.1880   10.7050  -13.7820 O   0  0  0  0  0  0  0  0  0  0  0  0
  -13.1540   11.7270  -13.8230 C   0  0  0  0  0  0  0  0  0  0  0  0
  -12.6290   13.0390  -14.4080 C   0  0  0  0  0  0  0  0  0  0  0  0
  -13.7750   13.9800  -14.7650 C   0  0  0  0  0  0  0  0  0  0  0  0
  -14.6730   13.3610  -15.6540 O   0  0  0  0  0  0  0  0  0  0  0  0
  -15.3090   12.2790  -15.0290 C   0  0  0  0  0  0  0  0  0  0  0  0
  -14.2870   11.1920  -14.7130 C   0  0  0  0  0  0  0  0  0  0  0  0
 27 28  1  0
 28 29  1  0
 29 30  1  0
 30 31  1  0
 31 26  1  0
 26 25  1  0
 25 24  1  0
 24  1  1  0
  1  2  2  0
  2  3  1  0
  3  4  2  0
  4  5  1  0
  5 34  1  0
 34 35  1  0
 35 36  1  0
 36 37  1  0
 37 38  1  0
 38 39  1  0
 39 40  1  0
  5  6  2  0
  4  7  1  0
  7 12  1  0
 12 14  1  0
 14 15  2  0
 15 16  1  0
 15 17  1  0
 17 18  2  0
 18 19  1  0
 19 20  2  0
 20 21  1  0
 21 22  1  0
 22 23  1  0
  7  8  1  0
  8  9  2  0
  9 10  1  0
 31 32  1  0
 32 33  1  0
 33 28  1  0
  6  1  1  0
 20 14  1  0
 10  3  1  0
 40 35  1  0
 23 19  1  0
 12 13  1  0
 10 11  1  0
M  END
> <meeko>
{"is_sidechain": false}

> <source_group>
FYN canonical

> <source_system>
FYN_saracatinib

> <source_run>
vina_seed8831_ex64

> <source_seed>
8831

> <vina_pose_rank>
10

> <vina_affinity_kcal_mol>
-8.4830000000000005

> <vina_rmsd_to_crystal_angstrom>
7.8327999999999998

> <minimizedAffinity>
-8.34543

> <CNNscore>
0.0072338465

> <CNNaffinity>
4.3447785378

> <CNN_VS>
0.0314294621

> <CNNaffinity_variance>
2.9572651386

$$$$
