BACE1_verubecestat__alternate_457_seed1103_ex32__pose01
     RDKit          3D

 45 47  0  0  0  0  0  0  0  0999 V2000
   27.7650   12.7090   23.5610 C   0  0  0  0  0  0  0  0  0  0  0  0
   26.8670   13.1480   22.4750 N   0  0  0  0  0  0  0  0  0  0  0  0
   25.9670   14.2280   22.6090 C   0  0  0  0  0  0  0  0  0  0  0  0
   26.1060   14.9260   23.7780 N   0  0  0  0  0  0  0  0  0  0  0  0
   25.0960   14.5590   21.7050 N   0  0  0  0  0  0  0  0  0  0  0  0
   24.8920   13.7510   20.5040 C   0  0  2  0  0  0  0  0  0  0  0  0
   24.1790   14.7190   19.5560 C   0  0  0  0  0  0  0  0  0  0  0  0
   23.9820   12.5600   20.7650 C   0  0  0  0  0  0  0  0  0  0  0  0
   23.4710   12.3110   22.0380 C   0  0  0  0  0  0  0  0  0  0  0  0
   22.6480   11.2400   22.3040 C   0  0  0  0  0  0  0  0  0  0  0  0
   22.2010   11.1040   23.6240 N   0  0  0  0  0  0  0  0  0  0  0  0
   22.9270   11.2430   24.7940 C   0  0  0  0  0  0  0  0  0  0  0  0
   24.1410   11.3870   24.8560 O   0  0  0  0  0  0  0  0  0  0  0  0
   22.1250   11.2480   26.0410 C   0  0  0  0  0  0  0  0  0  0  0  0
   20.9110   10.5840   26.0840 C   0  0  0  0  0  0  0  0  0  0  0  0
   20.2030   10.6230   27.2730 C   0  0  0  0  0  0  0  0  0  0  0  0
   20.7180   11.3040   28.3580 C   0  0  0  0  0  0  0  0  0  0  0  0
   20.0630   11.3770   29.5290 F   0  0  0  0  0  0  0  0  0  0  0  0
   21.9310   11.9390   28.2160 C   0  0  0  0  0  0  0  0  0  0  0  0
   22.6380   11.9240   27.0740 N   0  0  0  0  0  0  0  0  0  0  0  0
   22.2760   10.3690   21.2870 C   0  0  0  0  0  0  0  0  0  0  0  0
   22.7770   10.6000   20.0180 C   0  0  0  0  0  0  0  0  0  0  0  0
   23.6270   11.6600   19.7730 C   0  0  0  0  0  0  0  0  0  0  0  0
   24.1280   11.8470   18.5250 F   0  0  0  0  0  0  0  0  0  0  0  0
   26.2240   13.4120   19.8720 C   0  0  0  0  0  0  0  0  0  0  0  0
   27.1940   12.3990   20.9600 S   0  0  0  0  0  0  0  0  0  0  0  0
   28.5860   12.6640   20.6400 O   0  0  0  0  0  0  0  0  0  0  0  0
   26.6370   11.0900   21.0980 O   0  0  0  0  0  0  0  0  0  0  0  0
   27.3025   12.9351   24.5331 H   0  0  0  0  0  0  0  0  0  0  0  0
   27.9364   11.6255   23.4796 H   0  0  0  0  0  0  0  0  0  0  0  0
   28.7253   13.2393   23.4796 H   0  0  0  0  0  0  0  0  0  0  0  0
   25.5230   15.6970   23.9640 H   0  0  0  0  0  0  0  0  0  0  0  0
   26.7900   14.6570   24.4340 H   0  0  0  0  0  0  0  0  0  0  0  0
   23.6274   15.4679   20.1433 H   0  0  0  0  0  0  0  0  0  0  0  0
   24.9218   15.2250   18.9218 H   0  0  0  0  0  0  0  0  0  0  0  0
   23.4755   14.1597   18.9218 H   0  0  0  0  0  0  0  0  0  0  0  0
   23.7347   12.9943   22.8587 H   0  0  0  0  0  0  0  0  0  0  0  0
   21.2480   10.8820   23.7340 H   0  0  0  0  0  0  0  0  0  0  0  0
   20.5235   10.0457   25.2065 H   0  0  0  0  0  0  0  0  0  0  0  0
   19.2320   10.1124   27.3532 H   0  0  0  0  0  0  0  0  0  0  0  0
   22.3408   12.4847   29.0787 H   0  0  0  0  0  0  0  0  0  0  0  0
   21.6034    9.5214   21.4849 H   0  0  0  0  0  0  0  0  0  0  0  0
   22.4941    9.9298   19.1929 H   0  0  0  0  0  0  0  0  0  0  0  0
   26.0498   12.8683   18.9318 H   0  0  0  0  0  0  0  0  0  0  0  0
   26.7710   14.3461   19.6765 H   0  0  0  0  0  0  0  0  0  0  0  0
  1  2  1  0
  2  3  1  0
  3  4  1  0
  3  5  2  0
  5  6  1  0
  6  7  1  6
  6  8  1  0
  8  9  2  0
  9 10  1  0
 10 11  1  0
 11 12  1  0
 12 13  2  0
 12 14  1  0
 14 15  2  0
 15 16  1  0
 16 17  2  0
 17 18  1  0
 17 19  1  0
 19 20  2  0
 10 21  2  0
 21 22  1  0
 22 23  2  0
 23 24  1  0
  6 25  1  0
 25 26  1  0
 26 27  2  0
 26 28  2  0
 26  2  1  0
 23  8  1  0
 20 14  1  0
  1 29  1  0
  1 30  1  0
  1 31  1  0
  4 32  1  0
  4 33  1  0
  7 34  1  0
  7 35  1  0
  7 36  1  0
  9 37  1  0
 11 38  1  0
 15 39  1  0
 16 40  1  0
 19 41  1  0
 21 42  1  0
 22 43  1  0
 25 44  1  0
 25 45  1  0
M  END
>  <meeko>  (1)
{"is_sidechain": false}

>  <source_group>  (1)
BACE1-457

>  <source_system>  (1)
BACE1_verubecestat

>  <source_run>  (1)
alternate_457_seed1103_ex32

>  <source_seed>  (1)
1103

>  <vina_pose_rank>  (1)
1

>  <vina_affinity_kcal_mol>  (1)
-8.2889999999999997

>  <vina_rmsd_to_crystal_angstrom>  (1)
6.9958999999999998

$$$$
BACE1_verubecestat__alternate_457_seed1103_ex32__pose02
     RDKit          3D

 45 47  0  0  0  0  0  0  0  0999 V2000
   28.3630    9.7520   21.0310 C   0  0  0  0  0  0  0  0  0  0  0  0
   27.9680   11.1700   20.9170 N   0  0  0  0  0  0  0  0  0  0  0  0
   28.0040   12.0690   22.0060 C   0  0  0  0  0  0  0  0  0  0  0  0
   28.5790   11.5510   23.1350 N   0  0  0  0  0  0  0  0  0  0  0  0
   27.5590   13.2860   21.9520 N   0  0  0  0  0  0  0  0  0  0  0  0
   26.8620   13.7980   20.7730 C   0  0  2  0  0  0  0  0  0  0  0  0
   26.9560   15.3160   20.9510 C   0  0  0  0  0  0  0  0  0  0  0  0
   25.3950   13.3950   20.7580 C   0  0  0  0  0  0  0  0  0  0  0  0
   24.7970   12.8130   21.8740 C   0  0  0  0  0  0  0  0  0  0  0  0
   23.4730   12.4360   21.8870 C   0  0  0  0  0  0  0  0  0  0  0  0
   22.9950   11.8640   23.0740 N   0  0  0  0  0  0  0  0  0  0  0  0
   22.4650   12.5030   24.1800 C   0  0  0  0  0  0  0  0  0  0  0  0
   22.4470   13.7150   24.3520 O   0  0  0  0  0  0  0  0  0  0  0  0
   21.8510   11.6110   25.1930 C   0  0  0  0  0  0  0  0  0  0  0  0
   21.7840   10.2480   24.9640 C   0  0  0  0  0  0  0  0  0  0  0  0
   21.1990    9.4620   25.9410 C   0  0  0  0  0  0  0  0  0  0  0  0
   20.7140   10.0480   27.0950 C   0  0  0  0  0  0  0  0  0  0  0  0
   20.1300    9.3270   28.0670 F   0  0  0  0  0  0  0  0  0  0  0  0
   20.8210   11.4140   27.2290 C   0  0  0  0  0  0  0  0  0  0  0  0
   21.3780   12.2020   26.2950 N   0  0  0  0  0  0  0  0  0  0  0  0
   22.6700   12.6480   20.7740 C   0  0  0  0  0  0  0  0  0  0  0  0
   23.2480   13.2220   19.6550 C   0  0  0  0  0  0  0  0  0  0  0  0
   24.5860   13.5660   19.6450 C   0  0  0  0  0  0  0  0  0  0  0  0
   25.1360   14.1000   18.5250 F   0  0  0  0  0  0  0  0  0  0  0  0
   27.6350   13.4490   19.5210 C   0  0  0  0  0  0  0  0  0  0  0  0
   27.7060   11.6900   19.2970 S   0  0  0  0  0  0  0  0  0  0  0  0
   28.9240   11.4160   18.5560 O   0  0  0  0  0  0  0  0  0  0  0  0
   26.4250   11.1480   18.9660 O   0  0  0  0  0  0  0  0  0  0  0  0
   28.4396    9.4770   22.0933 H   0  0  0  0  0  0  0  0  0  0  0  0
   27.6066    9.1203   20.5423 H   0  0  0  0  0  0  0  0  0  0  0  0
   29.3370    9.6023   20.5423 H   0  0  0  0  0  0  0  0  0  0  0  0
   28.6500   12.1010   23.9490 H   0  0  0  0  0  0  0  0  0  0  0  0
   28.9220   10.6280   23.1340 H   0  0  0  0  0  0  0  0  0  0  0  0
   26.9711   15.5592   22.0237 H   0  0  0  0  0  0  0  0  0  0  0  0
   27.8787   15.6841   20.4786 H   0  0  0  0  0  0  0  0  0  0  0  0
   26.0858   15.7952   20.4786 H   0  0  0  0  0  0  0  0  0  0  0  0
   25.4043   12.6490   22.7764 H   0  0  0  0  0  0  0  0  0  0  0  0
   23.0430   10.8820   23.1270 H   0  0  0  0  0  0  0  0  0  0  0  0
   22.1814    9.8054   24.0387 H   0  0  0  0  0  0  0  0  0  0  0  0
   21.1202    8.3740   25.7997 H   0  0  0  0  0  0  0  0  0  0  0  0
   20.4316   11.8824   28.1449 H   0  0  0  0  0  0  0  0  0  0  0  0
   21.6062   12.3681   20.7815 H   0  0  0  0  0  0  0  0  0  0  0  0
   22.6337   13.4068   18.7615 H   0  0  0  0  0  0  0  0  0  0  0  0
   27.1382   13.9039   18.6514 H   0  0  0  0  0  0  0  0  0  0  0  0
   28.6605   13.8345   19.6198 H   0  0  0  0  0  0  0  0  0  0  0  0
  1  2  1  0
  2  3  1  0
  3  4  1  0
  3  5  2  0
  5  6  1  0
  6  7  1  1
  6  8  1  0
  8  9  2  0
  9 10  1  0
 10 11  1  0
 11 12  1  0
 12 13  2  0
 12 14  1  0
 14 15  2  0
 15 16  1  0
 16 17  2  0
 17 18  1  0
 17 19  1  0
 19 20  2  0
 10 21  2  0
 21 22  1  0
 22 23  2  0
 23 24  1  0
  6 25  1  0
 25 26  1  0
 26 27  2  0
 26 28  2  0
 26  2  1  0
 23  8  1  0
 20 14  1  0
  1 29  1  0
  1 30  1  0
  1 31  1  0
  4 32  1  0
  4 33  1  0
  7 34  1  0
  7 35  1  0
  7 36  1  0
  9 37  1  0
 11 38  1  0
 15 39  1  0
 16 40  1  0
 19 41  1  0
 21 42  1  0
 22 43  1  0
 25 44  1  0
 25 45  1  0
M  END
>  <meeko>  (2)
{"is_sidechain": false}

>  <source_group>  (2)
BACE1-457

>  <source_system>  (2)
BACE1_verubecestat

>  <source_run>  (2)
alternate_457_seed1103_ex32

>  <source_seed>  (2)
1103

>  <vina_pose_rank>  (2)
2

>  <vina_affinity_kcal_mol>  (2)
-8.0109999999999992

>  <vina_rmsd_to_crystal_angstrom>  (2)
7.3253000000000004

$$$$
BACE1_verubecestat__alternate_457_seed1103_ex32__pose03
     RDKit          3D

 45 47  0  0  0  0  0  0  0  0999 V2000
   22.7160    4.8280   19.2490 C   0  0  0  0  0  0  0  0  0  0  0  0
   22.1300    5.8570   18.3670 N   0  0  0  0  0  0  0  0  0  0  0  0
   22.0030    5.6920   16.9690 C   0  0  0  0  0  0  0  0  0  0  0  0
   22.3280    4.4380   16.5260 N   0  0  0  0  0  0  0  0  0  0  0  0
   21.5930    6.6250   16.1670 N   0  0  0  0  0  0  0  0  0  0  0  0
   21.3400    7.9860   16.6380 C   0  0  2  0  0  0  0  0  0  0  0  0
   20.4590    8.5730   15.5310 C   0  0  0  0  0  0  0  0  0  0  0  0
   22.6180    8.8040   16.7330 C   0  0  0  0  0  0  0  0  0  0  0  0
   23.8370    8.2890   16.2950 C   0  0  0  0  0  0  0  0  0  0  0  0
   25.0100    9.0050   16.3720 C   0  0  0  0  0  0  0  0  0  0  0  0
   26.1650    8.3720   15.8950 N   0  0  0  0  0  0  0  0  0  0  0  0
   27.3710    8.1850   16.5460 C   0  0  0  0  0  0  0  0  0  0  0  0
   27.6690    8.6710   17.6290 O   0  0  0  0  0  0  0  0  0  0  0  0
   28.3320    7.2910   15.8550 C   0  0  0  0  0  0  0  0  0  0  0  0
   27.9450    6.0140   15.4870 C   0  0  0  0  0  0  0  0  0  0  0  0
   28.8820    5.2220   14.8470 C   0  0  0  0  0  0  0  0  0  0  0  0
   30.1470    5.7190   14.5970 C   0  0  0  0  0  0  0  0  0  0  0  0
   31.0920    4.9840   13.9870 F   0  0  0  0  0  0  0  0  0  0  0  0
   30.4390    7.0000   15.0070 C   0  0  0  0  0  0  0  0  0  0  0  0
   29.5520    7.7900   15.6350 N   0  0  0  0  0  0  0  0  0  0  0  0
   25.0120   10.2990   16.8780 C   0  0  0  0  0  0  0  0  0  0  0  0
   23.8110   10.8260   17.3210 C   0  0  0  0  0  0  0  0  0  0  0  0
   22.6480   10.0830   17.2670 C   0  0  0  0  0  0  0  0  0  0  0  0
   21.4880   10.6130   17.7350 F   0  0  0  0  0  0  0  0  0  0  0  0
   20.5050    7.9530   17.8980 C   0  0  0  0  0  0  0  0  0  0  0  0
   21.3900    7.1590   19.2160 S   0  0  0  0  0  0  0  0  0  0  0  0
   20.3900    6.5830   20.0980 O   0  0  0  0  0  0  0  0  0  0  0  0
   22.4950    7.9490   19.6610 O   0  0  0  0  0  0  0  0  0  0  0  0
   22.5549    5.1108   20.2998 H   0  0  0  0  0  0  0  0  0  0  0  0
   22.2343    3.8588   19.0522 H   0  0  0  0  0  0  0  0  0  0  0  0
   23.7953    4.7478   19.0522 H   0  0  0  0  0  0  0  0  0  0  0  0
   22.2710    4.2250   15.5670 H   0  0  0  0  0  0  0  0  0  0  0  0
   22.6190    3.7490   17.1670 H   0  0  0  0  0  0  0  0  0  0  0  0
   19.6244    9.1291   15.9828 H   0  0  0  0  0  0  0  0  0  0  0  0
   21.0580    9.2532   14.9076 H   0  0  0  0  0  0  0  0  0  0  0  0
   20.0620    7.7583   14.9076 H   0  0  0  0  0  0  0  0  0  0  0  0
   23.8624    7.2737   15.8725 H   0  0  0  0  0  0  0  0  0  0  0  0
   26.1110    8.0140   14.9790 H   0  0  0  0  0  0  0  0  0  0  0  0
   26.9308    5.6427   15.6955 H   0  0  0  0  0  0  0  0  0  0  0  0
   28.6205    4.1992   14.5380 H   0  0  0  0  0  0  0  0  0  0  0  0
   31.4465    7.3958   14.8112 H   0  0  0  0  0  0  0  0  0  0  0  0
   25.9403   10.8872   16.9252 H   0  0  0  0  0  0  0  0  0  0  0  0
   23.7826   11.8502   17.7214 H   0  0  0  0  0  0  0  0  0  0  0  0
   20.2605    8.9832   18.1963 H   0  0  0  0  0  0  0  0  0  0  0  0
   19.5844    7.3852   17.6976 H   0  0  0  0  0  0  0  0  0  0  0  0
  1  2  1  0
  2  3  1  0
  3  4  1  0
  3  5  2  0
  5  6  1  0
  6  7  1  6
  6  8  1  0
  8  9  2  0
  9 10  1  0
 10 11  1  0
 11 12  1  0
 12 13  2  0
 12 14  1  0
 14 15  2  0
 15 16  1  0
 16 17  2  0
 17 18  1  0
 17 19  1  0
 19 20  2  0
 10 21  2  0
 21 22  1  0
 22 23  2  0
 23 24  1  0
  6 25  1  0
 25 26  1  0
 26 27  2  0
 26 28  2  0
 26  2  1  0
 23  8  1  0
 20 14  1  0
  1 29  1  0
  1 30  1  0
  1 31  1  0
  4 32  1  0
  4 33  1  0
  7 34  1  0
  7 35  1  0
  7 36  1  0
  9 37  1  0
 11 38  1  0
 15 39  1  0
 16 40  1  0
 19 41  1  0
 21 42  1  0
 22 43  1  0
 25 44  1  0
 25 45  1  0
M  END
>  <meeko>  (3)
{"is_sidechain": false}

>  <source_group>  (3)
BACE1-457

>  <source_system>  (3)
BACE1_verubecestat

>  <source_run>  (3)
alternate_457_seed1103_ex32

>  <source_seed>  (3)
1103

>  <vina_pose_rank>  (3)
3

>  <vina_affinity_kcal_mol>  (3)
-7.9450000000000003

>  <vina_rmsd_to_crystal_angstrom>  (3)
6.5007999999999999

$$$$
BACE1_verubecestat__alternate_457_seed1103_ex32__pose04
     RDKit          3D

 45 47  0  0  0  0  0  0  0  0999 V2000
   22.2430   12.5600   19.4970 C   0  0  0  0  0  0  0  0  0  0  0  0
   23.6830   12.3060   19.6980 N   0  0  0  0  0  0  0  0  0  0  0  0
   24.2040   11.0310   20.0160 C   0  0  0  0  0  0  0  0  0  0  0  0
   23.2760   10.0260   19.9700 N   0  0  0  0  0  0  0  0  0  0  0  0
   25.4500   10.8110   20.3030 N   0  0  0  0  0  0  0  0  0  0  0  0
   26.4100   11.9050   20.4410 C   0  0  2  0  0  0  0  0  0  0  0  0
   27.7600   11.1950   20.2990 C   0  0  0  0  0  0  0  0  0  0  0  0
   26.3400   12.5560   21.8130 C   0  0  0  0  0  0  0  0  0  0  0  0
   25.4130   12.1330   22.7640 C   0  0  0  0  0  0  0  0  0  0  0  0
   25.3250   12.7060   24.0130 C   0  0  0  0  0  0  0  0  0  0  0  0
   24.3510   12.1850   24.8750 N   0  0  0  0  0  0  0  0  0  0  0  0
   23.0400   12.5970   25.0360 C   0  0  0  0  0  0  0  0  0  0  0  0
   22.5470   13.5940   24.5250 O   0  0  0  0  0  0  0  0  0  0  0  0
   22.1960   11.7100   25.8730 C   0  0  0  0  0  0  0  0  0  0  0  0
   21.5480   10.6300   25.3000 C   0  0  0  0  0  0  0  0  0  0  0  0
   20.7720    9.8380   26.1270 C   0  0  0  0  0  0  0  0  0  0  0  0
   20.6720   10.1380   27.4720 C   0  0  0  0  0  0  0  0  0  0  0  0
   19.9230    9.4030   28.3120 F   0  0  0  0  0  0  0  0  0  0  0  0
   21.3500   11.2370   27.9480 C   0  0  0  0  0  0  0  0  0  0  0  0
   22.1060   12.0280   27.1690 N   0  0  0  0  0  0  0  0  0  0  0  0
   26.1890   13.7300   24.3790 C   0  0  0  0  0  0  0  0  0  0  0  0
   27.1140   14.1650   23.4470 C   0  0  0  0  0  0  0  0  0  0  0  0
   27.1690   13.6020   22.1870 C   0  0  0  0  0  0  0  0  0  0  0  0
   28.0660   14.0680   21.2800 F   0  0  0  0  0  0  0  0  0  0  0  0
   26.2850   12.8570   19.2720 C   0  0  0  0  0  0  0  0  0  0  0  0
   24.6890   13.6340   19.2650 S   0  0  0  0  0  0  0  0  0  0  0  0
   24.3950   13.9620   17.8810 O   0  0  0  0  0  0  0  0  0  0  0  0
   24.5410   14.5460   20.3560 O   0  0  0  0  0  0  0  0  0  0  0  0
   21.7462   12.6476   20.4745 H   0  0  0  0  0  0  0  0  0  0  0  0
   22.1108   13.4953   18.9334 H   0  0  0  0  0  0  0  0  0  0  0  0
   21.7988   11.7263   18.9334 H   0  0  0  0  0  0  0  0  0  0  0  0
   23.5420    9.1000   20.1760 H   0  0  0  0  0  0  0  0  0  0  0  0
   22.3420   10.2270   19.7310 H   0  0  0  0  0  0  0  0  0  0  0  0
   28.1682   10.9803   21.2976 H   0  0  0  0  0  0  0  0  0  0  0  0
   27.6225   10.2525   19.7487 H   0  0  0  0  0  0  0  0  0  0  0  0
   28.4587   11.8423   19.7487 H   0  0  0  0  0  0  0  0  0  0  0  0
   24.7272   11.3121   22.5076 H   0  0  0  0  0  0  0  0  0  0  0  0
   24.6360   11.4300   25.4380 H   0  0  0  0  0  0  0  0  0  0  0  0
   21.6463   10.4095   24.2268 H   0  0  0  0  0  0  0  0  0  0  0  0
   20.2354    8.9708   25.7146 H   0  0  0  0  0  0  0  0  0  0  0  0
   21.2689   11.4793   29.0179 H   0  0  0  0  0  0  0  0  0  0  0  0
   26.1392   14.1819   25.3807 H   0  0  0  0  0  0  0  0  0  0  0  0
   27.8150   14.9699   23.7129 H   0  0  0  0  0  0  0  0  0  0  0  0
   27.0631   13.6305   19.3512 H   0  0  0  0  0  0  0  0  0  0  0  0
   26.4062   12.2887   18.3380 H   0  0  0  0  0  0  0  0  0  0  0  0
  1  2  1  0
  2  3  1  0
  3  4  1  0
  3  5  2  0
  5  6  1  0
  6  7  1  6
  6  8  1  0
  8  9  2  0
  9 10  1  0
 10 11  1  0
 11 12  1  0
 12 13  2  0
 12 14  1  0
 14 15  2  0
 15 16  1  0
 16 17  2  0
 17 18  1  0
 17 19  1  0
 19 20  2  0
 10 21  2  0
 21 22  1  0
 22 23  2  0
 23 24  1  0
  6 25  1  0
 25 26  1  0
 26 27  2  0
 26 28  2  0
 26  2  1  0
 23  8  1  0
 20 14  1  0
  1 29  1  0
  1 30  1  0
  1 31  1  0
  4 32  1  0
  4 33  1  0
  7 34  1  0
  7 35  1  0
  7 36  1  0
  9 37  1  0
 11 38  1  0
 15 39  1  0
 16 40  1  0
 19 41  1  0
 21 42  1  0
 22 43  1  0
 25 44  1  0
 25 45  1  0
M  END
>  <meeko>  (4)
{"is_sidechain": false}

>  <source_group>  (4)
BACE1-457

>  <source_system>  (4)
BACE1_verubecestat

>  <source_run>  (4)
alternate_457_seed1103_ex32

>  <source_seed>  (4)
1103

>  <vina_pose_rank>  (4)
4

>  <vina_affinity_kcal_mol>  (4)
-7.8609999999999998

>  <vina_rmsd_to_crystal_angstrom>  (4)
7.1021999999999998

$$$$
BACE1_verubecestat__alternate_457_seed1103_ex32__pose05
     RDKit          3D

 45 47  0  0  0  0  0  0  0  0999 V2000
   21.0570   12.7620   16.2840 C   0  0  0  0  0  0  0  0  0  0  0  0
   22.2200   12.9360   17.1770 N   0  0  0  0  0  0  0  0  0  0  0  0
   23.4510   12.2720   16.9780 C   0  0  0  0  0  0  0  0  0  0  0  0
   23.5210   11.5740   15.8020 N   0  0  0  0  0  0  0  0  0  0  0  0
   24.4440   12.3280   17.8100 N   0  0  0  0  0  0  0  0  0  0  0  0
   24.3250   12.9960   19.1050 C   0  0  2  0  0  0  0  0  0  0  0  0
   25.7840   13.2290   19.5060 C   0  0  0  0  0  0  0  0  0  0  0  0
   23.6640   12.1080   20.1470 C   0  0  0  0  0  0  0  0  0  0  0  0
   23.2270   10.8230   19.8260 C   0  0  0  0  0  0  0  0  0  0  0  0
   22.6240    9.9990   20.7480 C   0  0  0  0  0  0  0  0  0  0  0  0
   22.2340    8.7310   20.2970 N   0  0  0  0  0  0  0  0  0  0  0  0
   21.4620    8.4150   19.1930 C   0  0  0  0  0  0  0  0  0  0  0  0
   20.8750    9.2250   18.4880 O   0  0  0  0  0  0  0  0  0  0  0  0
   21.3990    6.9720   18.8570 C   0  0  0  0  0  0  0  0  0  0  0  0
   22.5680    6.2590   18.6510 C   0  0  0  0  0  0  0  0  0  0  0  0
   22.4500    4.9160   18.3380 C   0  0  0  0  0  0  0  0  0  0  0  0
   21.1990    4.3380   18.2460 C   0  0  0  0  0  0  0  0  0  0  0  0
   21.0360    3.0400   17.9360 F   0  0  0  0  0  0  0  0  0  0  0  0
   20.0950    5.1310   18.4630 C   0  0  0  0  0  0  0  0  0  0  0  0
   20.1770    6.4380   18.7620 N   0  0  0  0  0  0  0  0  0  0  0  0
   22.4480   10.4210   22.0600 C   0  0  0  0  0  0  0  0  0  0  0  0
   22.8730   11.6940   22.3960 C   0  0  0  0  0  0  0  0  0  0  0  0
   23.4470   12.5220   21.4520 C   0  0  0  0  0  0  0  0  0  0  0  0
   23.8290   13.7780   21.8010 F   0  0  0  0  0  0  0  0  0  0  0  0
   23.6910   14.3580   18.9290 C   0  0  0  0  0  0  0  0  0  0  0  0
   22.0280   14.2030   18.3270 S   0  0  0  0  0  0  0  0  0  0  0  0
   21.7420   15.4170   17.5840 O   0  0  0  0  0  0  0  0  0  0  0  0
   21.1600   13.6410   19.3140 O   0  0  0  0  0  0  0  0  0  0  0  0
   20.1479   12.6260   16.8882 H   0  0  0  0  0  0  0  0  0  0  0  0
   20.9455   13.6535   15.6493 H   0  0  0  0  0  0  0  0  0  0  0  0
   21.2112   11.8769   15.6493 H   0  0  0  0  0  0  0  0  0  0  0  0
   24.3390   11.0780   15.5720 H   0  0  0  0  0  0  0  0  0  0  0  0
   22.7530   11.5690   15.1850 H   0  0  0  0  0  0  0  0  0  0  0  0
   25.8652   13.2420   20.6029 H   0  0  0  0  0  0  0  0  0  0  0  0
   26.4092   12.4193   19.1016 H   0  0  0  0  0  0  0  0  0  0  0  0
   26.1259   14.1931   19.1016 H   0  0  0  0  0  0  0  0  0  0  0  0
   23.3695   10.4553   18.7991 H   0  0  0  0  0  0  0  0  0  0  0  0
   22.5500    7.9680   20.8330 H   0  0  0  0  0  0  0  0  0  0  0  0
   23.5530    6.7417   18.7330 H   0  0  0  0  0  0  0  0  0  0  0  0
   23.3511    4.3099   18.1628 H   0  0  0  0  0  0  0  0  0  0  0  0
   19.0979    4.6725   18.3880 H   0  0  0  0  0  0  0  0  0  0  0  0
   21.9845    9.7625   22.8093 H   0  0  0  0  0  0  0  0  0  0  0  0
   22.7519   12.0513   23.4293 H   0  0  0  0  0  0  0  0  0  0  0  0
   23.6772   14.8778   19.8983 H   0  0  0  0  0  0  0  0  0  0  0  0
   24.2801   14.9304   18.1973 H   0  0  0  0  0  0  0  0  0  0  0  0
  1  2  1  0
  2  3  1  0
  3  4  1  0
  3  5  2  0
  5  6  1  0
  6  7  1  1
  6  8  1  0
  8  9  2  0
  9 10  1  0
 10 11  1  0
 11 12  1  0
 12 13  2  0
 12 14  1  0
 14 15  2  0
 15 16  1  0
 16 17  2  0
 17 18  1  0
 17 19  1  0
 19 20  2  0
 10 21  2  0
 21 22  1  0
 22 23  2  0
 23 24  1  0
  6 25  1  0
 25 26  1  0
 26 27  2  0
 26 28  2  0
 26  2  1  0
 23  8  1  0
 20 14  1  0
  1 29  1  0
  1 30  1  0
  1 31  1  0
  4 32  1  0
  4 33  1  0
  7 34  1  0
  7 35  1  0
  7 36  1  0
  9 37  1  0
 11 38  1  0
 15 39  1  0
 16 40  1  0
 19 41  1  0
 21 42  1  0
 22 43  1  0
 25 44  1  0
 25 45  1  0
M  END
>  <meeko>  (5)
{"is_sidechain": false}

>  <source_group>  (5)
BACE1-457

>  <source_system>  (5)
BACE1_verubecestat

>  <source_run>  (5)
alternate_457_seed1103_ex32

>  <source_seed>  (5)
1103

>  <vina_pose_rank>  (5)
5

>  <vina_affinity_kcal_mol>  (5)
-7.6289999999999996

>  <vina_rmsd_to_crystal_angstrom>  (5)
7.2770000000000001

$$$$
BACE1_verubecestat__alternate_457_seed1103_ex32__pose06
     RDKit          3D

 45 47  0  0  0  0  0  0  0  0999 V2000
   26.4350   10.7200   16.5650 C   0  0  0  0  0  0  0  0  0  0  0  0
   26.5240   11.2050   17.9560 N   0  0  0  0  0  0  0  0  0  0  0  0
   27.1970   10.4970   18.9770 C   0  0  0  0  0  0  0  0  0  0  0  0
   27.8870    9.4010   18.5310 N   0  0  0  0  0  0  0  0  0  0  0  0
   27.1930   10.8520   20.2250 N   0  0  0  0  0  0  0  0  0  0  0  0
   26.3770   11.9660   20.7030 C   0  0  2  0  0  0  0  0  0  0  0  0
   27.0250   12.3130   22.0470 C   0  0  0  0  0  0  0  0  0  0  0  0
   24.9330   11.5540   20.9460 C   0  0  0  0  0  0  0  0  0  0  0  0
   24.4820   10.2790   20.6080 C   0  0  0  0  0  0  0  0  0  0  0  0
   23.1810    9.8790   20.8140 C   0  0  0  0  0  0  0  0  0  0  0  0
   22.8590    8.5710   20.4310 N   0  0  0  0  0  0  0  0  0  0  0  0
   21.9450    8.1570   19.4780 C   0  0  0  0  0  0  0  0  0  0  0  0
   21.1600    8.8890   18.8900 O   0  0  0  0  0  0  0  0  0  0  0  0
   21.9820    6.7110   19.1510 C   0  0  0  0  0  0  0  0  0  0  0  0
   22.7570    6.2600   18.0970 C   0  0  0  0  0  0  0  0  0  0  0  0
   22.7530    4.9010   17.8350 C   0  0  0  0  0  0  0  0  0  0  0  0
   21.9950    4.0520   18.6180 C   0  0  0  0  0  0  0  0  0  0  0  0
   21.9520    2.7270   18.3970 F   0  0  0  0  0  0  0  0  0  0  0  0
   21.2520    4.5960   19.6420 C   0  0  0  0  0  0  0  0  0  0  0  0
   21.2320    5.9110   19.9160 N   0  0  0  0  0  0  0  0  0  0  0  0
   22.2640   10.7440   21.3980 C   0  0  0  0  0  0  0  0  0  0  0  0
   22.6930   12.0150   21.7370 C   0  0  0  0  0  0  0  0  0  0  0  0
   23.9930   12.4120   21.4950 C   0  0  0  0  0  0  0  0  0  0  0  0
   24.3820   13.6750   21.8110 F   0  0  0  0  0  0  0  0  0  0  0  0
   26.5570   13.1670   19.8010 C   0  0  0  0  0  0  0  0  0  0  0  0
   25.9600   12.8180   18.1660 S   0  0  0  0  0  0  0  0  0  0  0  0
   26.7200   13.6600   17.2600 O   0  0  0  0  0  0  0  0  0  0  0  0
   24.5370   12.6880   18.1400 O   0  0  0  0  0  0  0  0  0  0  0  0
   26.2365    9.6381   16.5659 H   0  0  0  0  0  0  0  0  0  0  0  0
   25.6177   11.2423   16.0461 H   0  0  0  0  0  0  0  0  0  0  0  0
   27.3845   10.9181   16.0461 H   0  0  0  0  0  0  0  0  0  0  0  0
   28.3890    8.8430   19.1680 H   0  0  0  0  0  0  0  0  0  0  0  0
   27.8820    9.1720   17.5730 H   0  0  0  0  0  0  0  0  0  0  0  0
   26.3780   11.9665   22.8663 H   0  0  0  0  0  0  0  0  0  0  0  0
   28.0052   11.8191   22.1199 H   0  0  0  0  0  0  0  0  0  0  0  0
   27.1572   13.4026   22.1199 H   0  0  0  0  0  0  0  0  0  0  0  0
   25.1912    9.5670   20.1606 H   0  0  0  0  0  0  0  0  0  0  0  0
   23.3440    7.8540   20.9010 H   0  0  0  0  0  0  0  0  0  0  0  0
   23.3543    6.9560   17.4897 H   0  0  0  0  0  0  0  0  0  0  0  0
   23.3520    4.4978   17.0052 H   0  0  0  0  0  0  0  0  0  0  0  0
   20.6461    3.9217   20.2652 H   0  0  0  0  0  0  0  0  0  0  0  0
   21.2273   10.4277   21.5854 H   0  0  0  0  0  0  0  0  0  0  0  0
   21.9890   12.7185   22.2055 H   0  0  0  0  0  0  0  0  0  0  0  0
   25.9967   14.0177   20.2162 H   0  0  0  0  0  0  0  0  0  0  0  0
   27.6286   13.4082   19.7425 H   0  0  0  0  0  0  0  0  0  0  0  0
  1  2  1  0
  2  3  1  0
  3  4  1  0
  3  5  2  0
  5  6  1  0
  6  7  1  1
  6  8  1  0
  8  9  2  0
  9 10  1  0
 10 11  1  0
 11 12  1  0
 12 13  2  0
 12 14  1  0
 14 15  2  0
 15 16  1  0
 16 17  2  0
 17 18  1  0
 17 19  1  0
 19 20  2  0
 10 21  2  0
 21 22  1  0
 22 23  2  0
 23 24  1  0
  6 25  1  0
 25 26  1  0
 26 27  2  0
 26 28  2  0
 26  2  1  0
 23  8  1  0
 20 14  1  0
  1 29  1  0
  1 30  1  0
  1 31  1  0
  4 32  1  0
  4 33  1  0
  7 34  1  0
  7 35  1  0
  7 36  1  0
  9 37  1  0
 11 38  1  0
 15 39  1  0
 16 40  1  0
 19 41  1  0
 21 42  1  0
 22 43  1  0
 25 44  1  0
 25 45  1  0
M  END
>  <meeko>  (6)
{"is_sidechain": false}

>  <source_group>  (6)
BACE1-457

>  <source_system>  (6)
BACE1_verubecestat

>  <source_run>  (6)
alternate_457_seed1103_ex32

>  <source_seed>  (6)
1103

>  <vina_pose_rank>  (6)
6

>  <vina_affinity_kcal_mol>  (6)
-7.4080000000000004

>  <vina_rmsd_to_crystal_angstrom>  (6)
7.1550000000000002

$$$$
BACE1_verubecestat__alternate_457_seed1103_ex32__pose07
     RDKit          3D

 45 47  0  0  0  0  0  0  0  0999 V2000
   28.6980    8.2790   15.3570 C   0  0  0  0  0  0  0  0  0  0  0  0
   27.4440    7.9540   14.6500 N   0  0  0  0  0  0  0  0  0  0  0  0
   26.5610    8.9390   14.1550 C   0  0  0  0  0  0  0  0  0  0  0  0
   27.0430   10.2160   14.2530 N   0  0  0  0  0  0  0  0  0  0  0  0
   25.4050    8.6730   13.6300 N   0  0  0  0  0  0  0  0  0  0  0  0
   24.8600    7.3160   13.6170 C   0  0  2  0  0  0  0  0  0  0  0  0
   23.7820    7.3890   12.5320 C   0  0  0  0  0  0  0  0  0  0  0  0
   24.2020    6.9530   14.9390 C   0  0  0  0  0  0  0  0  0  0  0  0
   24.0070    7.9110   15.9330 C   0  0  0  0  0  0  0  0  0  0  0  0
   23.4170    7.6100   17.1400 C   0  0  0  0  0  0  0  0  0  0  0  0
   23.2770    8.6650   18.0510 N   0  0  0  0  0  0  0  0  0  0  0  0
   22.1170    9.3040   18.4510 C   0  0  0  0  0  0  0  0  0  0  0  0
   21.0100    9.1250   17.9620 O   0  0  0  0  0  0  0  0  0  0  0  0
   22.2720   10.2430   19.5890 C   0  0  0  0  0  0  0  0  0  0  0  0
   22.3400    9.7560   20.8830 C   0  0  0  0  0  0  0  0  0  0  0  0
   22.4830   10.6770   21.9060 C   0  0  0  0  0  0  0  0  0  0  0  0
   22.5540   12.0250   21.6130 C   0  0  0  0  0  0  0  0  0  0  0  0
   22.6830   12.9560   22.5730 F   0  0  0  0  0  0  0  0  0  0  0  0
   22.4710   12.4130   20.2940 C   0  0  0  0  0  0  0  0  0  0  0  0
   22.3270   11.5430   19.2810 N   0  0  0  0  0  0  0  0  0  0  0  0
   22.9680    6.3220   17.4020 C   0  0  0  0  0  0  0  0  0  0  0  0
   23.1570    5.3570   16.4280 C   0  0  0  0  0  0  0  0  0  0  0  0
   23.7800    5.6660   15.2350 C   0  0  0  0  0  0  0  0  0  0  0  0
   23.9800    4.6940   14.3070 F   0  0  0  0  0  0  0  0  0  0  0  0
   25.9100    6.3400   13.1350 C   0  0  0  0  0  0  0  0  0  0  0  0
   27.2800    6.2850   14.2610 S   0  0  0  0  0  0  0  0  0  0  0  0
   28.4450    5.9090   13.4790 O   0  0  0  0  0  0  0  0  0  0  0  0
   26.9180    5.6780   15.5040 O   0  0  0  0  0  0  0  0  0  0  0  0
   28.5286    8.2351   16.4430 H   0  0  0  0  0  0  0  0  0  0  0  0
   29.4754    7.5527   15.0775 H   0  0  0  0  0  0  0  0  0  0  0  0
   29.0247    9.2915   15.0775 H   0  0  0  0  0  0  0  0  0  0  0  0
   26.4990   10.9730   13.9340 H   0  0  0  0  0  0  0  0  0  0  0  0
   27.9330   10.3790   14.6410 H   0  0  0  0  0  0  0  0  0  0  0  0
   22.7907    7.4561   13.0040 H   0  0  0  0  0  0  0  0  0  0  0  0
   23.9511    8.2777   11.9063 H   0  0  0  0  0  0  0  0  0  0  0  0
   23.8298    6.4856   11.9063 H   0  0  0  0  0  0  0  0  0  0  0  0
   24.3362    8.9439   15.7463 H   0  0  0  0  0  0  0  0  0  0  0  0
   24.1110    8.9940   18.4580 H   0  0  0  0  0  0  0  0  0  0  0  0
   22.2825    8.6773   21.0904 H   0  0  0  0  0  0  0  0  0  0  0  0
   22.5400   10.3363   22.9503 H   0  0  0  0  0  0  0  0  0  0  0  0
   22.5252   13.4863   20.0592 H   0  0  0  0  0  0  0  0  0  0  0  0
   22.4769    6.0762   18.3551 H   0  0  0  0  0  0  0  0  0  0  0  0
   22.8061    4.3299   16.6067 H   0  0  0  0  0  0  0  0  0  0  0  0
   25.4637    5.3374   13.0602 H   0  0  0  0  0  0  0  0  0  0  0  0
   26.2743    6.6702   12.1510 H   0  0  0  0  0  0  0  0  0  0  0  0
  1  2  1  0
  2  3  1  0
  3  4  1  0
  3  5  2  0
  5  6  1  0
  6  7  1  6
  6  8  1  0
  8  9  2  0
  9 10  1  0
 10 11  1  0
 11 12  1  0
 12 13  2  0
 12 14  1  0
 14 15  2  0
 15 16  1  0
 16 17  2  0
 17 18  1  0
 17 19  1  0
 19 20  2  0
 10 21  2  0
 21 22  1  0
 22 23  2  0
 23 24  1  0
  6 25  1  0
 25 26  1  0
 26 27  2  0
 26 28  2  0
 26  2  1  0
 23  8  1  0
 20 14  1  0
  1 29  1  0
  1 30  1  0
  1 31  1  0
  4 32  1  0
  4 33  1  0
  7 34  1  0
  7 35  1  0
  7 36  1  0
  9 37  1  0
 11 38  1  0
 15 39  1  0
 16 40  1  0
 19 41  1  0
 21 42  1  0
 22 43  1  0
 25 44  1  0
 25 45  1  0
M  END
>  <meeko>  (7)
{"is_sidechain": false}

>  <source_group>  (7)
BACE1-457

>  <source_system>  (7)
BACE1_verubecestat

>  <source_run>  (7)
alternate_457_seed1103_ex32

>  <source_seed>  (7)
1103

>  <vina_pose_rank>  (7)
7

>  <vina_affinity_kcal_mol>  (7)
-7.2229999999999999

>  <vina_rmsd_to_crystal_angstrom>  (7)
9.0252999999999997

$$$$
BACE1_verubecestat__alternate_457_seed1103_ex32__pose08
     RDKit          3D

 45 47  0  0  0  0  0  0  0  0999 V2000
   24.6780   11.6690   16.3270 C   0  0  0  0  0  0  0  0  0  0  0  0
   23.5090   10.8040   16.0730 N   0  0  0  0  0  0  0  0  0  0  0  0
   22.1800   11.2120   16.3260 C   0  0  0  0  0  0  0  0  0  0  0  0
   22.0610   12.5290   16.6810 N   0  0  0  0  0  0  0  0  0  0  0  0
   21.1520   10.4300   16.2110 N   0  0  0  0  0  0  0  0  0  0  0  0
   21.2990    9.0040   15.9240 C   0  0  2  0  0  0  0  0  0  0  0  0
   19.9080    8.6100   15.4200 C   0  0  0  0  0  0  0  0  0  0  0  0
   21.6140    8.1990   17.1750 C   0  0  0  0  0  0  0  0  0  0  0  0
   21.8310    8.8280   18.4000 C   0  0  0  0  0  0  0  0  0  0  0  0
   22.1200    8.1260   19.5480 C   0  0  0  0  0  0  0  0  0  0  0  0
   22.3140    8.8790   20.7130 N   0  0  0  0  0  0  0  0  0  0  0  0
   23.2710    9.8470   20.9590 C   0  0  0  0  0  0  0  0  0  0  0  0
   24.2080   10.1150   20.2180 O   0  0  0  0  0  0  0  0  0  0  0  0
   23.0860   10.6170   22.2130 C   0  0  0  0  0  0  0  0  0  0  0  0
   22.7390   11.9550   22.1580 C   0  0  0  0  0  0  0  0  0  0  0  0
   22.5810   12.6250   23.3580 C   0  0  0  0  0  0  0  0  0  0  0  0
   22.7670   11.9530   24.5510 C   0  0  0  0  0  0  0  0  0  0  0  0
   22.6340   12.5630   25.7410 F   0  0  0  0  0  0  0  0  0  0  0  0
   23.1180   10.6220   24.5030 C   0  0  0  0  0  0  0  0  0  0  0  0
   23.2830    9.9470   23.3540 N   0  0  0  0  0  0  0  0  0  0  0  0
   22.1850    6.7380   19.5260 C   0  0  0  0  0  0  0  0  0  0  0  0
   21.9760    6.0970   18.3180 C   0  0  0  0  0  0  0  0  0  0  0  0
   21.7180    6.8170   17.1680 C   0  0  0  0  0  0  0  0  0  0  0  0
   21.5450    6.1650   15.9890 F   0  0  0  0  0  0  0  0  0  0  0  0
   22.2600    8.8020   14.7740 C   0  0  0  0  0  0  0  0  0  0  0  0
   23.8870    9.3630   15.2100 S   0  0  0  0  0  0  0  0  0  0  0  0
   24.5340    9.7600   13.9730 O   0  0  0  0  0  0  0  0  0  0  0  0
   24.4880    8.5210   16.1970 O   0  0  0  0  0  0  0  0  0  0  0  0
   24.8249   11.7777   17.4117 H   0  0  0  0  0  0  0  0  0  0  0  0
   25.5743   11.2149   15.8793 H   0  0  0  0  0  0  0  0  0  0  0  0
   24.5058   12.6589   15.8793 H   0  0  0  0  0  0  0  0  0  0  0  0
   21.1740   12.9070   16.8770 H   0  0  0  0  0  0  0  0  0  0  0  0
   22.8630   13.0970   16.7400 H   0  0  0  0  0  0  0  0  0  0  0  0
   19.2464    8.4226   16.2786 H   0  0  0  0  0  0  0  0  0  0  0  0
   19.4943    9.4263   14.8097 H   0  0  0  0  0  0  0  0  0  0  0  0
   19.9839    7.6980   14.8097 H   0  0  0  0  0  0  0  0  0  0  0  0
   21.7690    9.9251   18.4509 H   0  0  0  0  0  0  0  0  0  0  0  0
   21.6880    8.6960   21.4510 H   0  0  0  0  0  0  0  0  0  0  0  0
   22.5940   12.4674   21.1955 H   0  0  0  0  0  0  0  0  0  0  0  0
   22.3079   13.6905   23.3625 H   0  0  0  0  0  0  0  0  0  0  0  0
   23.2705   10.0862   25.4515 H   0  0  0  0  0  0  0  0  0  0  0  0
   22.3963    6.1662   20.4416 H   0  0  0  0  0  0  0  0  0  0  0  0
   22.0159    4.9987   18.2728 H   0  0  0  0  0  0  0  0  0  0  0  0
   22.3023    7.7320   14.5225 H   0  0  0  0  0  0  0  0  0  0  0  0
   21.9051    9.3833   13.9102 H   0  0  0  0  0  0  0  0  0  0  0  0
  1  2  1  0
  2  3  1  0
  3  4  1  0
  3  5  2  0
  5  6  1  0
  6  7  1  6
  6  8  1  0
  8  9  2  0
  9 10  1  0
 10 11  1  0
 11 12  1  0
 12 13  2  0
 12 14  1  0
 14 15  2  0
 15 16  1  0
 16 17  2  0
 17 18  1  0
 17 19  1  0
 19 20  2  0
 10 21  2  0
 21 22  1  0
 22 23  2  0
 23 24  1  0
  6 25  1  0
 25 26  1  0
 26 27  2  0
 26 28  2  0
 26  2  1  0
 23  8  1  0
 20 14  1  0
  1 29  1  0
  1 30  1  0
  1 31  1  0
  4 32  1  0
  4 33  1  0
  7 34  1  0
  7 35  1  0
  7 36  1  0
  9 37  1  0
 11 38  1  0
 15 39  1  0
 16 40  1  0
 19 41  1  0
 21 42  1  0
 22 43  1  0
 25 44  1  0
 25 45  1  0
M  END
>  <meeko>  (8)
{"is_sidechain": false}

>  <source_group>  (8)
BACE1-457

>  <source_system>  (8)
BACE1_verubecestat

>  <source_run>  (8)
alternate_457_seed1103_ex32

>  <source_seed>  (8)
1103

>  <vina_pose_rank>  (8)
8

>  <vina_affinity_kcal_mol>  (8)
-7.2149999999999999

>  <vina_rmsd_to_crystal_angstrom>  (8)
6.9836

$$$$
BACE1_verubecestat__alternate_457_seed1103_ex32__pose09
     RDKit          3D

 45 47  0  0  0  0  0  0  0  0999 V2000
   22.6550    4.4170   17.6060 C   0  0  0  0  0  0  0  0  0  0  0  0
   22.1490    5.7690   17.2950 N   0  0  0  0  0  0  0  0  0  0  0  0
   22.2320    6.3450   16.0090 C   0  0  0  0  0  0  0  0  0  0  0  0
   22.6830    5.4860   15.0430 N   0  0  0  0  0  0  0  0  0  0  0  0
   21.8930    7.5690   15.7430 N   0  0  0  0  0  0  0  0  0  0  0  0
   21.5040    8.5040   16.7970 C   0  0  2  0  0  0  0  0  0  0  0  0
   20.7610    9.5990   16.0260 C   0  0  0  0  0  0  0  0  0  0  0  0
   22.7100    9.1220   17.4860 C   0  0  0  0  0  0  0  0  0  0  0  0
   22.6500    9.5240   18.8200 C   0  0  0  0  0  0  0  0  0  0  0  0
   23.7260   10.0880   19.4680 C   0  0  0  0  0  0  0  0  0  0  0  0
   23.5330   10.4450   20.8090 N   0  0  0  0  0  0  0  0  0  0  0  0
   22.8490   11.5360   21.3150 C   0  0  0  0  0  0  0  0  0  0  0  0
   22.3990   12.4570   20.6470 O   0  0  0  0  0  0  0  0  0  0  0  0
   22.6400   11.5260   22.7840 C   0  0  0  0  0  0  0  0  0  0  0  0
   22.6200   12.7180   23.4860 C   0  0  0  0  0  0  0  0  0  0  0  0
   22.4230   12.6500   24.8550 C   0  0  0  0  0  0  0  0  0  0  0  0
   22.2540   11.4230   25.4650 C   0  0  0  0  0  0  0  0  0  0  0  0
   22.0700   11.3070   26.7910 F   0  0  0  0  0  0  0  0  0  0  0  0
   22.2960   10.2920   24.6820 C   0  0  0  0  0  0  0  0  0  0  0  0
   22.4910   10.3260   23.3530 N   0  0  0  0  0  0  0  0  0  0  0  0
   24.9360   10.2570   18.8070 C   0  0  0  0  0  0  0  0  0  0  0  0
   25.0130    9.8670   17.4810 C   0  0  0  0  0  0  0  0  0  0  0  0
   23.9160    9.3320   16.8350 C   0  0  0  0  0  0  0  0  0  0  0  0
   24.0090    8.9840   15.5250 F   0  0  0  0  0  0  0  0  0  0  0  0
   20.4990    7.8550   17.7230 C   0  0  0  0  0  0  0  0  0  0  0  0
   21.2270    6.4730   18.5670 S   0  0  0  0  0  0  0  0  0  0  0  0
   20.1440    5.5560   18.8720 O   0  0  0  0  0  0  0  0  0  0  0  0
   22.2140    6.8930   19.5130 O   0  0  0  0  0  0  0  0  0  0  0  0
   22.7041    4.2859   18.6971 H   0  0  0  0  0  0  0  0  0  0  0  0
   21.9778    3.6642   17.1763 H   0  0  0  0  0  0  0  0  0  0  0  0
   23.6601    4.2938   17.1763 H   0  0  0  0  0  0  0  0  0  0  0  0
   22.7750    5.7950   14.1130 H   0  0  0  0  0  0  0  0  0  0  0  0
   22.9150    4.5580   15.2780 H   0  0  0  0  0  0  0  0  0  0  0  0
   20.2900   10.2932   16.7375 H   0  0  0  0  0  0  0  0  0  0  0  0
   21.4729   10.1494   15.3934 H   0  0  0  0  0  0  0  0  0  0  0  0
   19.9865    9.1409   15.3934 H   0  0  0  0  0  0  0  0  0  0  0  0
   21.7099    9.3856   19.3741 H   0  0  0  0  0  0  0  0  0  0  0  0
   23.9360    9.8430   21.4750 H   0  0  0  0  0  0  0  0  0  0  0  0
   22.7555   13.6832   22.9760 H   0  0  0  0  0  0  0  0  0  0  0  0
   22.4012   13.5716   25.4552 H   0  0  0  0  0  0  0  0  0  0  0  0
   22.1636    9.3137   25.1672 H   0  0  0  0  0  0  0  0  0  0  0  0
   25.8072   10.6880   19.3220 H   0  0  0  0  0  0  0  0  0  0  0  0
   25.9605    9.9848   16.9347 H   0  0  0  0  0  0  0  0  0  0  0  0
   20.1610    8.5940   18.4644 H   0  0  0  0  0  0  0  0  0  0  0  0
   19.6471    7.4970   17.1263 H   0  0  0  0  0  0  0  0  0  0  0  0
  1  2  1  0
  2  3  1  0
  3  4  1  0
  3  5  2  0
  5  6  1  0
  6  7  1  6
  6  8  1  0
  8  9  2  0
  9 10  1  0
 10 11  1  0
 11 12  1  0
 12 13  2  0
 12 14  1  0
 14 15  2  0
 15 16  1  0
 16 17  2  0
 17 18  1  0
 17 19  1  0
 19 20  2  0
 10 21  2  0
 21 22  1  0
 22 23  2  0
 23 24  1  0
  6 25  1  0
 25 26  1  0
 26 27  2  0
 26 28  2  0
 26  2  1  0
 23  8  1  0
 20 14  1  0
  1 29  1  0
  1 30  1  0
  1 31  1  0
  4 32  1  0
  4 33  1  0
  7 34  1  0
  7 35  1  0
  7 36  1  0
  9 37  1  0
 11 38  1  0
 15 39  1  0
 16 40  1  0
 19 41  1  0
 21 42  1  0
 22 43  1  0
 25 44  1  0
 25 45  1  0
M  END
>  <meeko>  (9)
{"is_sidechain": false}

>  <source_group>  (9)
BACE1-457

>  <source_system>  (9)
BACE1_verubecestat

>  <source_run>  (9)
alternate_457_seed1103_ex32

>  <source_seed>  (9)
1103

>  <vina_pose_rank>  (9)
9

>  <vina_affinity_kcal_mol>  (9)
-7.1189999999999998

>  <vina_rmsd_to_crystal_angstrom>  (9)
6.7999000000000001

$$$$
BACE1_verubecestat__alternate_457_seed1103_ex32__pose10
     RDKit          3D

 45 47  0  0  0  0  0  0  0  0999 V2000
   21.8200    5.1370   17.1880 C   0  0  0  0  0  0  0  0  0  0  0  0
   21.7100    6.5960   16.9870 N   0  0  0  0  0  0  0  0  0  0  0  0
   21.7660    7.2040   15.7130 C   0  0  0  0  0  0  0  0  0  0  0  0
   21.7770    6.3130   14.6730 N   0  0  0  0  0  0  0  0  0  0  0  0
   21.7810    8.4870   15.5260 N   0  0  0  0  0  0  0  0  0  0  0  0
   21.8650    9.4250   16.6440 C   0  0  2  0  0  0  0  0  0  0  0  0
   21.3830   10.7410   16.0250 C   0  0  0  0  0  0  0  0  0  0  0  0
   23.2940    9.6070   17.1310 C   0  0  0  0  0  0  0  0  0  0  0  0
   24.3460    8.8990   16.5530 C   0  0  0  0  0  0  0  0  0  0  0  0
   25.6490    9.0410   16.9750 C   0  0  0  0  0  0  0  0  0  0  0  0
   26.6120    8.2730   16.3080 N   0  0  0  0  0  0  0  0  0  0  0  0
   27.5550    8.6930   15.3870 C   0  0  0  0  0  0  0  0  0  0  0  0
   27.6140    9.8150   14.9010 O   0  0  0  0  0  0  0  0  0  0  0  0
   28.5740    7.6810   15.0170 C   0  0  0  0  0  0  0  0  0  0  0  0
   28.9250    6.6920   15.9190 C   0  0  0  0  0  0  0  0  0  0  0  0
   29.8820    5.7740   15.5220 C   0  0  0  0  0  0  0  0  0  0  0  0
   30.4440    5.8680   14.2640 C   0  0  0  0  0  0  0  0  0  0  0  0
   31.3830    5.0060   13.8380 F   0  0  0  0  0  0  0  0  0  0  0  0
   30.0340    6.8910   13.4390 C   0  0  0  0  0  0  0  0  0  0  0  0
   29.1120    7.7990   13.7980 N   0  0  0  0  0  0  0  0  0  0  0  0
   25.9640    9.9280   17.9970 C   0  0  0  0  0  0  0  0  0  0  0  0
   24.9320   10.6360   18.5850 C   0  0  0  0  0  0  0  0  0  0  0  0
   23.6250   10.4600   18.1720 C   0  0  0  0  0  0  0  0  0  0  0  0
   22.6270   11.1450   18.7860 F   0  0  0  0  0  0  0  0  0  0  0  0
   20.8660    9.0480   17.7150 C   0  0  0  0  0  0  0  0  0  0  0  0
   21.2570    7.4600   18.4050 S   0  0  0  0  0  0  0  0  0  0  0  0
   20.0050    6.8920   18.8730 O   0  0  0  0  0  0  0  0  0  0  0  0
   22.4580    7.5020   19.1790 O   0  0  0  0  0  0  0  0  0  0  0  0
   21.8367    4.9155   18.2653 H   0  0  0  0  0  0  0  0  0  0  0  0
   20.9570    4.6369   16.7242 H   0  0  0  0  0  0  0  0  0  0  0  0
   22.7482    4.7719   16.7242 H   0  0  0  0  0  0  0  0  0  0  0  0
   21.8140    6.6410   13.7450 H   0  0  0  0  0  0  0  0  0  0  0  0
   21.7470    5.3460   14.8520 H   0  0  0  0  0  0  0  0  0  0  0  0
   21.1235   11.4494   16.8255 H   0  0  0  0  0  0  0  0  0  0  0  0
   22.1831   11.1681   15.4025 H   0  0  0  0  0  0  0  0  0  0  0  0
   20.4963   10.5503   15.4025 H   0  0  0  0  0  0  0  0  0  0  0  0
   24.1277    8.2020   15.7305 H   0  0  0  0  0  0  0  0  0  0  0  0
   26.6190    7.3120   16.5220 H   0  0  0  0  0  0  0  0  0  0  0  0
   28.4607    6.6373   16.9147 H   0  0  0  0  0  0  0  0  0  0  0  0
   30.1940    4.9717   16.2068 H   0  0  0  0  0  0  0  0  0  0  0  0
   30.4831    6.9683   12.4378 H   0  0  0  0  0  0  0  0  0  0  0  0
   27.0041   10.0631   18.3287 H   0  0  0  0  0  0  0  0  0  0  0  0
   25.1544   11.3490   19.3925 H   0  0  0  0  0  0  0  0  0  0  0  0
   20.8894    9.8044   18.5133 H   0  0  0  0  0  0  0  0  0  0  0  0
   19.8639    9.0010   17.2637 H   0  0  0  0  0  0  0  0  0  0  0  0
  1  2  1  0
  2  3  1  0
  3  4  1  0
  3  5  2  0
  5  6  1  0
  6  7  1  6
  6  8  1  0
  8  9  2  0
  9 10  1  0
 10 11  1  0
 11 12  1  0
 12 13  2  0
 12 14  1  0
 14 15  2  0
 15 16  1  0
 16 17  2  0
 17 18  1  0
 17 19  1  0
 19 20  2  0
 10 21  2  0
 21 22  1  0
 22 23  2  0
 23 24  1  0
  6 25  1  0
 25 26  1  0
 26 27  2  0
 26 28  2  0
 26  2  1  0
 23  8  1  0
 20 14  1  0
  1 29  1  0
  1 30  1  0
  1 31  1  0
  4 32  1  0
  4 33  1  0
  7 34  1  0
  7 35  1  0
  7 36  1  0
  9 37  1  0
 11 38  1  0
 15 39  1  0
 16 40  1  0
 19 41  1  0
 21 42  1  0
 22 43  1  0
 25 44  1  0
 25 45  1  0
M  END
>  <meeko>  (10)
{"is_sidechain": false}

>  <source_group>  (10)
BACE1-457

>  <source_system>  (10)
BACE1_verubecestat

>  <source_run>  (10)
alternate_457_seed1103_ex32

>  <source_seed>  (10)
1103

>  <vina_pose_rank>  (10)
10

>  <vina_affinity_kcal_mol>  (10)
-7.1109999999999998

>  <vina_rmsd_to_crystal_angstrom>  (10)
6.8167

$$$$
BACE1_verubecestat__alternate_457_seed1103_ex32__pose11
     RDKit          3D

 45 47  0  0  0  0  0  0  0  0999 V2000
   22.6110    6.5450   18.3870 C   0  0  0  0  0  0  0  0  0  0  0  0
   22.0430    7.0260   17.1120 N   0  0  0  0  0  0  0  0  0  0  0  0
   22.0440    6.2550   15.9280 C   0  0  0  0  0  0  0  0  0  0  0  0
   22.4770    4.9680   16.1040 N   0  0  0  0  0  0  0  0  0  0  0  0
   21.6490    6.7010   14.7760 N   0  0  0  0  0  0  0  0  0  0  0  0
   21.2780    8.1020   14.5810 C   0  0  2  0  0  0  0  0  0  0  0  0
   20.4610    8.0630   13.2860 C   0  0  0  0  0  0  0  0  0  0  0  0
   22.4940    8.9890   14.3670 C   0  0  0  0  0  0  0  0  0  0  0  0
   23.7830    8.4590   14.3740 C   0  0  0  0  0  0  0  0  0  0  0  0
   24.9020    9.2380   14.1860 C   0  0  0  0  0  0  0  0  0  0  0  0
   26.1380    8.5800   14.2150 N   0  0  0  0  0  0  0  0  0  0  0  0
   26.8010    8.0470   15.3060 C   0  0  0  0  0  0  0  0  0  0  0  0
   26.4590    8.1850   16.4730 O   0  0  0  0  0  0  0  0  0  0  0  0
   27.9930    7.2250   14.9840 C   0  0  0  0  0  0  0  0  0  0  0  0
   28.6660    6.5600   15.9940 C   0  0  0  0  0  0  0  0  0  0  0  0
   29.7720    5.8090   15.6370 C   0  0  0  0  0  0  0  0  0  0  0  0
   30.1620    5.7440   14.3130 C   0  0  0  0  0  0  0  0  0  0  0  0
   31.2350    5.0350   13.9210 F   0  0  0  0  0  0  0  0  0  0  0  0
   29.4310    6.4460   13.3820 C   0  0  0  0  0  0  0  0  0  0  0  0
   28.3570    7.1870   13.6980 N   0  0  0  0  0  0  0  0  0  0  0  0
   24.7780   10.6030   13.9560 C   0  0  0  0  0  0  0  0  0  0  0  0
   23.5060   11.1480   13.9490 C   0  0  0  0  0  0  0  0  0  0  0  0
   22.3950   10.3580   14.1710 C   0  0  0  0  0  0  0  0  0  0  0  0
   21.1600   10.9230   14.1870 F   0  0  0  0  0  0  0  0  0  0  0  0
   20.3440    8.5500   15.6820 C   0  0  0  0  0  0  0  0  0  0  0  0
   21.1590    8.4960   17.2570 S   0  0  0  0  0  0  0  0  0  0  0  0
   20.1250    8.2790   18.2520 O   0  0  0  0  0  0  0  0  0  0  0  0
   22.1750    9.4970   17.3600 O   0  0  0  0  0  0  0  0  0  0  0  0
   22.0686    7.0043   19.2265 H   0  0  0  0  0  0  0  0  0  0  0  0
   22.5134    5.4507   18.4422 H   0  0  0  0  0  0  0  0  0  0  0  0
   23.6742    6.8215   18.4422 H   0  0  0  0  0  0  0  0  0  0  0  0
   22.5140    4.3520   15.3370 H   0  0  0  0  0  0  0  0  0  0  0  0
   22.7530    4.6590   16.9980 H   0  0  0  0  0  0  0  0  0  0  0  0
   19.3896    8.0119   13.5298 H   0  0  0  0  0  0  0  0  0  0  0  0
   20.6605    8.9717   12.6991 H   0  0  0  0  0  0  0  0  0  0  0  0
   20.7462    7.1774   12.6991 H   0  0  0  0  0  0  0  0  0  0  0  0
   23.9107    7.3785   14.5357 H   0  0  0  0  0  0  0  0  0  0  0  0
   26.5930    8.4830   13.3470 H   0  0  0  0  0  0  0  0  0  0  0  0
   28.3343    6.6259   17.0407 H   0  0  0  0  0  0  0  0  0  0  0  0
   30.3398    5.2646   16.4059 H   0  0  0  0  0  0  0  0  0  0  0  0
   29.7417    6.3976   12.3279 H   0  0  0  0  0  0  0  0  0  0  0  0
   25.6644   11.2314   13.7846 H   0  0  0  0  0  0  0  0  0  0  0  0
   23.3780   12.2248   13.7642 H   0  0  0  0  0  0  0  0  0  0  0  0
   20.0162    9.5805   15.4803 H   0  0  0  0  0  0  0  0  0  0  0  0
   19.4781    7.8721   15.7086 H   0  0  0  0  0  0  0  0  0  0  0  0
  1  2  1  0
  2  3  1  0
  3  4  1  0
  3  5  2  0
  5  6  1  0
  6  7  1  6
  6  8  1  0
  8  9  2  0
  9 10  1  0
 10 11  1  0
 11 12  1  0
 12 13  2  0
 12 14  1  0
 14 15  2  0
 15 16  1  0
 16 17  2  0
 17 18  1  0
 17 19  1  0
 19 20  2  0
 10 21  2  0
 21 22  1  0
 22 23  2  0
 23 24  1  0
  6 25  1  0
 25 26  1  0
 26 27  2  0
 26 28  2  0
 26  2  1  0
 23  8  1  0
 20 14  1  0
  1 29  1  0
  1 30  1  0
  1 31  1  0
  4 32  1  0
  4 33  1  0
  7 34  1  0
  7 35  1  0
  7 36  1  0
  9 37  1  0
 11 38  1  0
 15 39  1  0
 16 40  1  0
 19 41  1  0
 21 42  1  0
 22 43  1  0
 25 44  1  0
 25 45  1  0
M  END
>  <meeko>  (11)
{"is_sidechain": false}

>  <source_group>  (11)
BACE1-457

>  <source_system>  (11)
BACE1_verubecestat

>  <source_run>  (11)
alternate_457_seed1103_ex32

>  <source_seed>  (11)
1103

>  <vina_pose_rank>  (11)
11

>  <vina_affinity_kcal_mol>  (11)
-7.0750000000000002

>  <vina_rmsd_to_crystal_angstrom>  (11)
7.4241999999999999

$$$$
BACE1_verubecestat__alternate_457_seed1103_ex32__pose12
     RDKit          3D

 45 47  0  0  0  0  0  0  0  0999 V2000
   23.8970   11.1990   15.7600 C   0  0  0  0  0  0  0  0  0  0  0  0
   23.5390    9.7730   15.9020 N   0  0  0  0  0  0  0  0  0  0  0  0
   24.0340    8.9550   16.9420 C   0  0  0  0  0  0  0  0  0  0  0  0
   24.7500    9.6350   17.8910 N   0  0  0  0  0  0  0  0  0  0  0  0
   23.8180    7.6790   17.0210 N   0  0  0  0  0  0  0  0  0  0  0  0
   23.1340    6.9480   15.9550 C   0  0  2  0  0  0  0  0  0  0  0  0
   22.6920    5.6590   16.6530 C   0  0  0  0  0  0  0  0  0  0  0  0
   24.0730    6.5920   14.8140 C   0  0  0  0  0  0  0  0  0  0  0  0
   25.4530    6.7460   14.9420 C   0  0  0  0  0  0  0  0  0  0  0  0
   26.3260    6.4340   13.9240 C   0  0  0  0  0  0  0  0  0  0  0  0
   27.6880    6.6330   14.1830 N   0  0  0  0  0  0  0  0  0  0  0  0
   28.5680    5.7900   14.8390 C   0  0  0  0  0  0  0  0  0  0  0  0
   28.2540    4.7620   15.4260 O   0  0  0  0  0  0  0  0  0  0  0  0
   29.9950    6.1860   14.7690 C   0  0  0  0  0  0  0  0  0  0  0  0
   30.7810    5.7560   13.7140 C   0  0  0  0  0  0  0  0  0  0  0  0
   32.1060    6.1530   13.7000 C   0  0  0  0  0  0  0  0  0  0  0  0
   32.5950    6.9530   14.7150 C   0  0  0  0  0  0  0  0  0  0  0  0
   33.8770    7.3570   14.7490 F   0  0  0  0  0  0  0  0  0  0  0  0
   31.7370    7.3260   15.7250 C   0  0  0  0  0  0  0  0  0  0  0  0
   30.4480    6.9510   15.7690 N   0  0  0  0  0  0  0  0  0  0  0  0
   25.8520    5.9250   12.7220 C   0  0  0  0  0  0  0  0  0  0  0  0
   24.4850    5.7680   12.5760 C   0  0  0  0  0  0  0  0  0  0  0  0
   23.6180    6.1160   13.5930 C   0  0  0  0  0  0  0  0  0  0  0  0
   22.2790    5.9800   13.4140 F   0  0  0  0  0  0  0  0  0  0  0  0
   21.8770    7.6840   15.5450 C   0  0  0  0  0  0  0  0  0  0  0  0
   22.2760    9.2660   14.8480 S   0  0  0  0  0  0  0  0  0  0  0  0
   21.1350   10.1280   15.0970 O   0  0  0  0  0  0  0  0  0  0  0  0
   22.9220    9.1350   13.5790 O   0  0  0  0  0  0  0  0  0  0  0  0
   24.0101   11.6497   16.7570 H   0  0  0  0  0  0  0  0  0  0  0  0
   24.8448   11.2859   15.2086 H   0  0  0  0  0  0  0  0  0  0  0  0
   23.1026   11.7233   15.2086 H   0  0  0  0  0  0  0  0  0  0  0  0
   25.1360    9.1510   18.6560 H   0  0  0  0  0  0  0  0  0  0  0  0
   24.8790   10.6080   17.8070 H   0  0  0  0  0  0  0  0  0  0  0  0
   22.7395    5.7975   17.7432 H   0  0  0  0  0  0  0  0  0  0  0  0
   21.6599    5.4180   16.3586 H   0  0  0  0  0  0  0  0  0  0  0  0
   23.3590    4.8354   16.3586 H   0  0  0  0  0  0  0  0  0  0  0  0
   25.8584    7.1303   15.8896 H   0  0  0  0  0  0  0  0  0  0  0  0
   28.0680    7.4800   13.8570 H   0  0  0  0  0  0  0  0  0  0  0  0
   30.3672    5.1219   12.9161 H   0  0  0  0  0  0  0  0  0  0  0  0
   32.7689    5.8326   12.8827 H   0  0  0  0  0  0  0  0  0  0  0  0
   32.1256    7.9614   16.5345 H   0  0  0  0  0  0  0  0  0  0  0  0
   26.5429    5.6546   11.9099 H   0  0  0  0  0  0  0  0  0  0  0  0
   24.0832    5.3603   11.6367 H   0  0  0  0  0  0  0  0  0  0  0  0
   21.3360    7.0859   14.7969 H   0  0  0  0  0  0  0  0  0  0  0  0
   21.2506    7.8378   16.4360 H   0  0  0  0  0  0  0  0  0  0  0  0
  1  2  1  0
  2  3  1  0
  3  4  1  0
  3  5  2  0
  5  6  1  0
  6  7  1  1
  6  8  1  0
  8  9  2  0
  9 10  1  0
 10 11  1  0
 11 12  1  0
 12 13  2  0
 12 14  1  0
 14 15  2  0
 15 16  1  0
 16 17  2  0
 17 18  1  0
 17 19  1  0
 19 20  2  0
 10 21  2  0
 21 22  1  0
 22 23  2  0
 23 24  1  0
  6 25  1  0
 25 26  1  0
 26 27  2  0
 26 28  2  0
 26  2  1  0
 23  8  1  0
 20 14  1  0
  1 29  1  0
  1 30  1  0
  1 31  1  0
  4 32  1  0
  4 33  1  0
  7 34  1  0
  7 35  1  0
  7 36  1  0
  9 37  1  0
 11 38  1  0
 15 39  1  0
 16 40  1  0
 19 41  1  0
 21 42  1  0
 22 43  1  0
 25 44  1  0
 25 45  1  0
M  END
>  <meeko>  (12)
{"is_sidechain": false}

>  <source_group>  (12)
BACE1-457

>  <source_system>  (12)
BACE1_verubecestat

>  <source_run>  (12)
alternate_457_seed1103_ex32

>  <source_seed>  (12)
1103

>  <vina_pose_rank>  (12)
12

>  <vina_affinity_kcal_mol>  (12)
-7.056

>  <vina_rmsd_to_crystal_angstrom>  (12)
8.0152000000000001

$$$$
BACE1_verubecestat__alternate_457_seed1103_ex32__pose13
     RDKit          3D

 45 47  0  0  0  0  0  0  0  0999 V2000
   27.5290   11.4970   18.8500 C   0  0  0  0  0  0  0  0  0  0  0  0
   26.3290   11.8690   19.6240 N   0  0  0  0  0  0  0  0  0  0  0  0
   25.9010   11.1610   20.7690 C   0  0  0  0  0  0  0  0  0  0  0  0
   26.7780   10.1960   21.1860 N   0  0  0  0  0  0  0  0  0  0  0  0
   24.7920   11.4070   21.3970 N   0  0  0  0  0  0  0  0  0  0  0  0
   23.8200   12.3730   20.8890 C   0  0  2  0  0  0  0  0  0  0  0  0
   22.9640   12.6790   22.1210 C   0  0  0  0  0  0  0  0  0  0  0  0
   22.9300   11.7750   19.8100 C   0  0  0  0  0  0  0  0  0  0  0  0
   22.8910   10.3980   19.5910 C   0  0  0  0  0  0  0  0  0  0  0  0
   22.0980    9.8300   18.6200 C   0  0  0  0  0  0  0  0  0  0  0  0
   22.1500    8.4340   18.5050 N   0  0  0  0  0  0  0  0  0  0  0  0
   21.5960    7.4840   19.3450 C   0  0  0  0  0  0  0  0  0  0  0  0
   21.0660    7.7200   20.4230 O   0  0  0  0  0  0  0  0  0  0  0  0
   21.6420    6.0900   18.8410 C   0  0  0  0  0  0  0  0  0  0  0  0
   22.1770    5.8240   17.5920 C   0  0  0  0  0  0  0  0  0  0  0  0
   22.1930    4.5060   17.1720 C   0  0  0  0  0  0  0  0  0  0  0  0
   21.6900    3.5150   17.9930 C   0  0  0  0  0  0  0  0  0  0  0  0
   21.6760    2.2230   17.6230 F   0  0  0  0  0  0  0  0  0  0  0  0
   21.1730    3.8800   19.2150 C   0  0  0  0  0  0  0  0  0  0  0  0
   21.1390    5.1510   19.6490 N   0  0  0  0  0  0  0  0  0  0  0  0
   21.2780   10.6230   17.8280 C   0  0  0  0  0  0  0  0  0  0  0  0
   21.3070   11.9920   18.0290 C   0  0  0  0  0  0  0  0  0  0  0  0
   22.1320   12.5510   18.9850 C   0  0  0  0  0  0  0  0  0  0  0  0
   22.1630   13.9000   19.1420 F   0  0  0  0  0  0  0  0  0  0  0  0
   24.5170   13.6580   20.5040 C   0  0  0  0  0  0  0  0  0  0  0  0
   25.6470   13.3810   19.1630 S   0  0  0  0  0  0  0  0  0  0  0  0
   26.6930   14.3810   19.2890 O   0  0  0  0  0  0  0  0  0  0  0  0
   24.9580   13.0880   17.9450 O   0  0  0  0  0  0  0  0  0  0  0  0
   28.3468   11.2435   19.5407 H   0  0  0  0  0  0  0  0  0  0  0  0
   27.3014   10.6272   18.2162 H   0  0  0  0  0  0  0  0  0  0  0  0
   27.8333   12.3430   18.2162 H   0  0  0  0  0  0  0  0  0  0  0  0
   26.5680    9.6490   21.9770 H   0  0  0  0  0  0  0  0  0  0  0  0
   27.6190   10.0500   20.6950 H   0  0  0  0  0  0  0  0  0  0  0  0
   23.5448   12.4714   23.0318 H   0  0  0  0  0  0  0  0  0  0  0  0
   22.6684   13.7385   22.1082 H   0  0  0  0  0  0  0  0  0  0  0  0
   22.0638   12.0470   22.1082 H   0  0  0  0  0  0  0  0  0  0  0  0
   23.5158    9.7432   20.2161 H   0  0  0  0  0  0  0  0  0  0  0  0
   22.6420    8.0860   17.7270 H   0  0  0  0  0  0  0  0  0  0  0  0
   22.5743    6.6301   16.9577 H   0  0  0  0  0  0  0  0  0  0  0  0
   22.6056    4.2473   16.1857 H   0  0  0  0  0  0  0  0  0  0  0  0
   20.7680    3.0930   19.8681 H   0  0  0  0  0  0  0  0  0  0  0  0
   20.6250   10.1764   17.0637 H   0  0  0  0  0  0  0  0  0  0  0  0
   20.6642   12.6437   17.4190 H   0  0  0  0  0  0  0  0  0  0  0  0
   23.7645   14.3985   20.1951 H   0  0  0  0  0  0  0  0  0  0  0  0
   25.0821   14.0278   21.3722 H   0  0  0  0  0  0  0  0  0  0  0  0
  1  2  1  0
  2  3  1  0
  3  4  1  0
  3  5  2  0
  5  6  1  0
  6  7  1  1
  6  8  1  0
  8  9  2  0
  9 10  1  0
 10 11  1  0
 11 12  1  0
 12 13  2  0
 12 14  1  0
 14 15  2  0
 15 16  1  0
 16 17  2  0
 17 18  1  0
 17 19  1  0
 19 20  2  0
 10 21  2  0
 21 22  1  0
 22 23  2  0
 23 24  1  0
  6 25  1  0
 25 26  1  0
 26 27  2  0
 26 28  2  0
 26  2  1  0
 23  8  1  0
 20 14  1  0
  1 29  1  0
  1 30  1  0
  1 31  1  0
  4 32  1  0
  4 33  1  0
  7 34  1  0
  7 35  1  0
  7 36  1  0
  9 37  1  0
 11 38  1  0
 15 39  1  0
 16 40  1  0
 19 41  1  0
 21 42  1  0
 22 43  1  0
 25 44  1  0
 25 45  1  0
M  END
>  <meeko>  (13)
{"is_sidechain": false}

>  <source_group>  (13)
BACE1-457

>  <source_system>  (13)
BACE1_verubecestat

>  <source_run>  (13)
alternate_457_seed1103_ex32

>  <source_seed>  (13)
1103

>  <vina_pose_rank>  (13)
13

>  <vina_affinity_kcal_mol>  (13)
-7.0519999999999996

>  <vina_rmsd_to_crystal_angstrom>  (13)
6.8897000000000004

$$$$
BACE1_verubecestat__alternate_457_seed1103_ex32__pose14
     RDKit          3D

 45 47  0  0  0  0  0  0  0  0999 V2000
   28.6070   12.1230   22.1040 C   0  0  0  0  0  0  0  0  0  0  0  0
   27.5140   12.3500   21.1380 N   0  0  0  0  0  0  0  0  0  0  0  0
   26.8480   13.5890   21.0060 C   0  0  0  0  0  0  0  0  0  0  0  0
   27.4040   14.6000   21.7440 N   0  0  0  0  0  0  0  0  0  0  0  0
   25.8160   13.7760   20.2420 N   0  0  0  0  0  0  0  0  0  0  0  0
   25.1740   12.6700   19.5340 C   0  0  2  0  0  0  0  0  0  0  0  0
   24.3690   13.3810   18.4430 C   0  0  0  0  0  0  0  0  0  0  0  0
   24.2150   11.9000   20.4290 C   0  0  0  0  0  0  0  0  0  0  0  0
   23.8300   10.5970   20.1190 C   0  0  0  0  0  0  0  0  0  0  0  0
   22.9610    9.8780   20.9080 C   0  0  0  0  0  0  0  0  0  0  0  0
   22.6580    8.5770   20.4850 N   0  0  0  0  0  0  0  0  0  0  0  0
   21.8120    8.1830   19.4640 C   0  0  0  0  0  0  0  0  0  0  0  0
   21.0740    8.9290   18.8340 O   0  0  0  0  0  0  0  0  0  0  0  0
   21.8630    6.7410   19.1200 C   0  0  0  0  0  0  0  0  0  0  0  0
   22.6330    6.3130   18.0530 C   0  0  0  0  0  0  0  0  0  0  0  0
   22.6430    4.9570   17.7750 C   0  0  0  0  0  0  0  0  0  0  0  0
   21.9030    4.0900   18.5550 C   0  0  0  0  0  0  0  0  0  0  0  0
   21.8740    2.7670   18.3170 F   0  0  0  0  0  0  0  0  0  0  0  0
   21.1630    4.6120   19.5910 C   0  0  0  0  0  0  0  0  0  0  0  0
   21.1290    5.9240   19.8820 N   0  0  0  0  0  0  0  0  0  0  0  0
   22.4470   10.4320   22.0740 C   0  0  0  0  0  0  0  0  0  0  0  0
   22.8160   11.7260   22.3960 C   0  0  0  0  0  0  0  0  0  0  0  0
   23.6630   12.4470   21.5770 C   0  0  0  0  0  0  0  0  0  0  0  0
   23.9860   13.7260   21.9010 F   0  0  0  0  0  0  0  0  0  0  0  0
   26.2170   11.8250   18.8370 C   0  0  0  0  0  0  0  0  0  0  0  0
   27.2980   11.0600   20.0180 S   0  0  0  0  0  0  0  0  0  0  0  0
   28.5690   10.8570   19.3460 O   0  0  0  0  0  0  0  0  0  0  0  0
   26.6220   10.0570   20.7800 O   0  0  0  0  0  0  0  0  0  0  0  0
   28.2140   12.2046   23.1282 H   0  0  0  0  0  0  0  0  0  0  0  0
   29.0281   11.1182   21.9518 H   0  0  0  0  0  0  0  0  0  0  0  0
   29.3933   12.8770   21.9518 H   0  0  0  0  0  0  0  0  0  0  0  0
   27.0100   15.5020   21.7180 H   0  0  0  0  0  0  0  0  0  0  0  0
   28.1980   14.4250   22.2990 H   0  0  0  0  0  0  0  0  0  0  0  0
   23.6223   14.0405   18.9093 H   0  0  0  0  0  0  0  0  0  0  0  0
   25.0477   13.9798   17.8179 H   0  0  0  0  0  0  0  0  0  0  0  0
   23.8586   12.6335   17.8179 H   0  0  0  0  0  0  0  0  0  0  0  0
   24.2351   10.1262   19.2111 H   0  0  0  0  0  0  0  0  0  0  0  0
   23.1050    7.8510   20.9770 H   0  0  0  0  0  0  0  0  0  0  0  0
   23.2154    7.0237   17.4483 H   0  0  0  0  0  0  0  0  0  0  0  0
   23.2389    4.5708   16.9349 H   0  0  0  0  0  0  0  0  0  0  0  0
   20.5708    3.9227   20.2108 H   0  0  0  0  0  0  0  0  0  0  0  0
   21.7671    9.8590   22.7216 H   0  0  0  0  0  0  0  0  0  0  0  0
   22.4295   12.1870   23.3169 H   0  0  0  0  0  0  0  0  0  0  0  0
   25.7140   11.0433   18.2489 H   0  0  0  0  0  0  0  0  0  0  0  0
   26.8147   12.4732   18.1792 H   0  0  0  0  0  0  0  0  0  0  0  0
  1  2  1  0
  2  3  1  0
  3  4  1  0
  3  5  2  0
  5  6  1  0
  6  7  1  6
  6  8  1  0
  8  9  2  0
  9 10  1  0
 10 11  1  0
 11 12  1  0
 12 13  2  0
 12 14  1  0
 14 15  2  0
 15 16  1  0
 16 17  2  0
 17 18  1  0
 17 19  1  0
 19 20  2  0
 10 21  2  0
 21 22  1  0
 22 23  2  0
 23 24  1  0
  6 25  1  0
 25 26  1  0
 26 27  2  0
 26 28  2  0
 26  2  1  0
 23  8  1  0
 20 14  1  0
  1 29  1  0
  1 30  1  0
  1 31  1  0
  4 32  1  0
  4 33  1  0
  7 34  1  0
  7 35  1  0
  7 36  1  0
  9 37  1  0
 11 38  1  0
 15 39  1  0
 16 40  1  0
 19 41  1  0
 21 42  1  0
 22 43  1  0
 25 44  1  0
 25 45  1  0
M  END
>  <meeko>  (14)
{"is_sidechain": false}

>  <source_group>  (14)
BACE1-457

>  <source_system>  (14)
BACE1_verubecestat

>  <source_run>  (14)
alternate_457_seed1103_ex32

>  <source_seed>  (14)
1103

>  <vina_pose_rank>  (14)
14

>  <vina_affinity_kcal_mol>  (14)
-6.9470000000000001

>  <vina_rmsd_to_crystal_angstrom>  (14)
7.0114000000000001

$$$$
BACE1_verubecestat__alternate_457_seed1103_ex32__pose15
     RDKit          3D

 45 47  0  0  0  0  0  0  0  0999 V2000
   26.5950   13.4830   18.1250 C   0  0  0  0  0  0  0  0  0  0  0  0
   26.8170   13.3700   19.5800 N   0  0  0  0  0  0  0  0  0  0  0  0
   27.3500   12.2120   20.1890 C   0  0  0  0  0  0  0  0  0  0  0  0
   27.7820   11.2650   19.3000 N   0  0  0  0  0  0  0  0  0  0  0  0
   27.4510   12.0540   21.4730 N   0  0  0  0  0  0  0  0  0  0  0  0
   26.9000   13.0290   22.4130 C   0  0  2  0  0  0  0  0  0  0  0  0
   27.6390   12.7050   23.7150 C   0  0  0  0  0  0  0  0  0  0  0  0
   25.4090   12.8300   22.6330 C   0  0  0  0  0  0  0  0  0  0  0  0
   24.6970   11.8690   21.9160 C   0  0  0  0  0  0  0  0  0  0  0  0
   23.3470   11.6690   22.0920 C   0  0  0  0  0  0  0  0  0  0  0  0
   22.7530   10.6700   21.3110 N   0  0  0  0  0  0  0  0  0  0  0  0
   22.2820   10.7620   20.0130 C   0  0  0  0  0  0  0  0  0  0  0  0
   22.1930   11.7990   19.3690 O   0  0  0  0  0  0  0  0  0  0  0  0
   21.9010    9.4740   19.3850 C   0  0  0  0  0  0  0  0  0  0  0  0
   22.2570    8.2800   19.9860 C   0  0  0  0  0  0  0  0  0  0  0  0
   21.8760    7.1080   19.3550 C   0  0  0  0  0  0  0  0  0  0  0  0
   21.1650    7.1630   18.1720 C   0  0  0  0  0  0  0  0  0  0  0  0
   20.7830    6.0530   17.5190 F   0  0  0  0  0  0  0  0  0  0  0  0
   20.8630    8.4000   17.6490 C   0  0  0  0  0  0  0  0  0  0  0  0
   21.2230    9.5540   18.2350 N   0  0  0  0  0  0  0  0  0  0  0  0
   22.6410   12.4200   23.0240 C   0  0  0  0  0  0  0  0  0  0  0  0
   23.3300   13.3810   23.7420 C   0  0  0  0  0  0  0  0  0  0  0  0
   24.6780   13.5920   23.5320 C   0  0  0  0  0  0  0  0  0  0  0  0
   25.3250   14.5610   24.2280 F   0  0  0  0  0  0  0  0  0  0  0  0
   27.3080   14.4280   22.0080 C   0  0  0  0  0  0  0  0  0  0  0  0
   26.6120   14.8520   20.4310 S   0  0  0  0  0  0  0  0  0  0  0  0
   27.5100   15.8210   19.8290 O   0  0  0  0  0  0  0  0  0  0  0  0
   25.1930   15.0090   20.5060 O   0  0  0  0  0  0  0  0  0  0  0  0
   25.6289   13.9748   17.9386 H   0  0  0  0  0  0  0  0  0  0  0  0
   27.4028   14.0796   17.6761 H   0  0  0  0  0  0  0  0  0  0  0  0
   26.5879   12.4788   17.6761 H   0  0  0  0  0  0  0  0  0  0  0  0
   28.1700   10.4220   19.6290 H   0  0  0  0  0  0  0  0  0  0  0  0
   27.7060   11.4270   18.3320 H   0  0  0  0  0  0  0  0  0  0  0  0
   27.0086   12.9814   24.5730 H   0  0  0  0  0  0  0  0  0  0  0  0
   27.8589   11.6279   23.7535 H   0  0  0  0  0  0  0  0  0  0  0  0
   28.5802   13.2730   23.7535 H   0  0  0  0  0  0  0  0  0  0  0  0
   25.2339   11.2485   21.1834 H   0  0  0  0  0  0  0  0  0  0  0  0
   22.6590    9.7890   21.7400 H   0  0  0  0  0  0  0  0  0  0  0  0
   22.8216    8.2624   20.9299 H   0  0  0  0  0  0  0  0  0  0  0  0
   22.1390    6.1347   19.7950 H   0  0  0  0  0  0  0  0  0  0  0  0
   20.2995    8.4458   16.7054 H   0  0  0  0  0  0  0  0  0  0  0  0
   21.5656   12.2551   23.1861 H   0  0  0  0  0  0  0  0  0  0  0  0
   22.7965   13.9853   24.4905 H   0  0  0  0  0  0  0  0  0  0  0  0
   26.9501   15.1419   22.7645 H   0  0  0  0  0  0  0  0  0  0  0  0
   28.4047   14.4692   21.9335 H   0  0  0  0  0  0  0  0  0  0  0  0
  1  2  1  0
  2  3  1  0
  3  4  1  0
  3  5  2  0
  5  6  1  0
  6  7  1  1
  6  8  1  0
  8  9  2  0
  9 10  1  0
 10 11  1  0
 11 12  1  0
 12 13  2  0
 12 14  1  0
 14 15  2  0
 15 16  1  0
 16 17  2  0
 17 18  1  0
 17 19  1  0
 19 20  2  0
 10 21  2  0
 21 22  1  0
 22 23  2  0
 23 24  1  0
  6 25  1  0
 25 26  1  0
 26 27  2  0
 26 28  2  0
 26  2  1  0
 23  8  1  0
 20 14  1  0
  1 29  1  0
  1 30  1  0
  1 31  1  0
  4 32  1  0
  4 33  1  0
  7 34  1  0
  7 35  1  0
  7 36  1  0
  9 37  1  0
 11 38  1  0
 15 39  1  0
 16 40  1  0
 19 41  1  0
 21 42  1  0
 22 43  1  0
 25 44  1  0
 25 45  1  0
M  END
>  <meeko>  (15)
{"is_sidechain": false}

>  <source_group>  (15)
BACE1-457

>  <source_system>  (15)
BACE1_verubecestat

>  <source_run>  (15)
alternate_457_seed1103_ex32

>  <source_seed>  (15)
1103

>  <vina_pose_rank>  (15)
15

>  <vina_affinity_kcal_mol>  (15)
-6.843

>  <vina_rmsd_to_crystal_angstrom>  (15)
7.2172000000000001

$$$$
BACE1_verubecestat__alternate_457_seed1103_ex32__pose16
     RDKit          3D

 45 47  0  0  0  0  0  0  0  0999 V2000
   28.2050   15.8970   22.5070 C   0  0  0  0  0  0  0  0  0  0  0  0
   27.9550   14.5290   22.0120 N   0  0  0  0  0  0  0  0  0  0  0  0
   28.0540   14.1730   20.6490 C   0  0  0  0  0  0  0  0  0  0  0  0
   28.5490   15.1680   19.8490 N   0  0  0  0  0  0  0  0  0  0  0  0
   27.7320   13.0060   20.1820 N   0  0  0  0  0  0  0  0  0  0  0  0
   27.1160   11.9840   21.0270 C   0  0  2  0  0  0  0  0  0  0  0  0
   27.3550   10.6950   20.2360 C   0  0  0  0  0  0  0  0  0  0  0  0
   25.6180   12.1970   21.1790 C   0  0  0  0  0  0  0  0  0  0  0  0
   24.9380   11.7470   22.3100 C   0  0  0  0  0  0  0  0  0  0  0  0
   23.5830   11.9230   22.4730 C   0  0  0  0  0  0  0  0  0  0  0  0
   23.0230   11.4260   23.6570 N   0  0  0  0  0  0  0  0  0  0  0  0
   22.8120   12.0930   24.8510 C   0  0  0  0  0  0  0  0  0  0  0  0
   23.2110   13.2220   25.1080 O   0  0  0  0  0  0  0  0  0  0  0  0
   22.0060   11.3560   25.8540 C   0  0  0  0  0  0  0  0  0  0  0  0
   21.9580   11.8010   27.1640 C   0  0  0  0  0  0  0  0  0  0  0  0
   21.1920   11.0740   28.0590 C   0  0  0  0  0  0  0  0  0  0  0  0
   20.5100    9.9530   27.6270 C   0  0  0  0  0  0  0  0  0  0  0  0
   19.7610    9.2100   28.4610 F   0  0  0  0  0  0  0  0  0  0  0  0
   20.6240    9.5860   26.3060 C   0  0  0  0  0  0  0  0  0  0  0  0
   21.3650   10.2680   25.4160 N   0  0  0  0  0  0  0  0  0  0  0  0
   22.8380   12.5870   21.5060 C   0  0  0  0  0  0  0  0  0  0  0  0
   23.4960   13.0370   20.3750 C   0  0  0  0  0  0  0  0  0  0  0  0
   24.8510   12.8250   20.2100 C   0  0  0  0  0  0  0  0  0  0  0  0
   25.4670   13.2510   19.0780 F   0  0  0  0  0  0  0  0  0  0  0  0
   27.8800   11.8550   22.3260 C   0  0  0  0  0  0  0  0  0  0  0  0
   27.7830   13.3590   23.2630 S   0  0  0  0  0  0  0  0  0  0  0  0
   28.9840   13.4190   24.0760 O   0  0  0  0  0  0  0  0  0  0  0  0
   26.4630   13.5850   23.7640 O   0  0  0  0  0  0  0  0  0  0  0  0
   28.2046   15.8947   23.6070 H   0  0  0  0  0  0  0  0  0  0  0  0
   29.1819   16.2464   22.1414 H   0  0  0  0  0  0  0  0  0  0  0  0
   27.4148   16.5693   22.1414 H   0  0  0  0  0  0  0  0  0  0  0  0
   28.6550   15.0150   18.8830 H   0  0  0  0  0  0  0  0  0  0  0  0
   28.7990   16.0360   20.2410 H   0  0  0  0  0  0  0  0  0  0  0  0
   27.5099    9.8595   20.9346 H   0  0  0  0  0  0  0  0  0  0  0  0
   26.4803   10.4860   19.6026 H   0  0  0  0  0  0  0  0  0  0  0  0
   28.2465   10.8135   19.6026 H   0  0  0  0  0  0  0  0  0  0  0  0
   25.5049   11.2330   23.1002 H   0  0  0  0  0  0  0  0  0  0  0  0
   22.7430   10.4830   23.6370 H   0  0  0  0  0  0  0  0  0  0  0  0
   22.5081   12.6989   27.4819 H   0  0  0  0  0  0  0  0  0  0  0  0
   21.1266   11.3880   29.1112 H   0  0  0  0  0  0  0  0  0  0  0  0
   20.0831    8.6921   25.9619 H   0  0  0  0  0  0  0  0  0  0  0  0
   21.7579   12.7499   21.6357 H   0  0  0  0  0  0  0  0  0  0  0  0
   22.9320   13.5712   19.5962 H   0  0  0  0  0  0  0  0  0  0  0  0
   27.4506   11.0329   22.9173 H   0  0  0  0  0  0  0  0  0  0  0  0
   28.9358   11.6490   22.0963 H   0  0  0  0  0  0  0  0  0  0  0  0
  1  2  1  0
  2  3  1  0
  3  4  1  0
  3  5  2  0
  5  6  1  0
  6  7  1  6
  6  8  1  0
  8  9  2  0
  9 10  1  0
 10 11  1  0
 11 12  1  0
 12 13  2  0
 12 14  1  0
 14 15  2  0
 15 16  1  0
 16 17  2  0
 17 18  1  0
 17 19  1  0
 19 20  2  0
 10 21  2  0
 21 22  1  0
 22 23  2  0
 23 24  1  0
  6 25  1  0
 25 26  1  0
 26 27  2  0
 26 28  2  0
 26  2  1  0
 23  8  1  0
 20 14  1  0
  1 29  1  0
  1 30  1  0
  1 31  1  0
  4 32  1  0
  4 33  1  0
  7 34  1  0
  7 35  1  0
  7 36  1  0
  9 37  1  0
 11 38  1  0
 15 39  1  0
 16 40  1  0
 19 41  1  0
 21 42  1  0
 22 43  1  0
 25 44  1  0
 25 45  1  0
M  END
>  <meeko>  (16)
{"is_sidechain": false}

>  <source_group>  (16)
BACE1-457

>  <source_system>  (16)
BACE1_verubecestat

>  <source_run>  (16)
alternate_457_seed1103_ex32

>  <source_seed>  (16)
1103

>  <vina_pose_rank>  (16)
16

>  <vina_affinity_kcal_mol>  (16)
-6.819

>  <vina_rmsd_to_crystal_angstrom>  (16)
7.3663999999999996

$$$$
BACE1_verubecestat__alternate_457_seed1103_ex32__pose17
     RDKit          3D

 45 47  0  0  0  0  0  0  0  0999 V2000
   21.6390    6.4490   16.2880 C   0  0  0  0  0  0  0  0  0  0  0  0
   22.1970    7.6600   15.6540 N   0  0  0  0  0  0  0  0  0  0  0  0
   23.5210    8.1030   15.8700 C   0  0  0  0  0  0  0  0  0  0  0  0
   24.2870    7.2290   16.5950 N   0  0  0  0  0  0  0  0  0  0  0  0
   23.9930    9.2200   15.4090 N   0  0  0  0  0  0  0  0  0  0  0  0
   23.1410   10.1870   14.7190 C   0  0  2  0  0  0  0  0  0  0  0  0
   24.1510   11.0590   13.9680 C   0  0  0  0  0  0  0  0  0  0  0  0
   22.3650   11.0610   15.6910 C   0  0  0  0  0  0  0  0  0  0  0  0
   22.5190   10.9160   17.0690 C   0  0  0  0  0  0  0  0  0  0  0  0
   21.8270   11.6910   17.9730 C   0  0  0  0  0  0  0  0  0  0  0  0
   22.0760   11.4460   19.3300 N   0  0  0  0  0  0  0  0  0  0  0  0
   22.8870   12.1580   20.1950 C   0  0  0  0  0  0  0  0  0  0  0  0
   23.6390   13.0670   19.8680 O   0  0  0  0  0  0  0  0  0  0  0  0
   22.7790   11.7760   21.6240 C   0  0  0  0  0  0  0  0  0  0  0  0
   22.6620   10.4420   21.9760 C   0  0  0  0  0  0  0  0  0  0  0  0
   22.5610   10.1430   23.3230 C   0  0  0  0  0  0  0  0  0  0  0  0
   22.5840   11.1610   24.2570 C   0  0  0  0  0  0  0  0  0  0  0  0
   22.4800   10.9190   25.5750 F   0  0  0  0  0  0  0  0  0  0  0  0
   22.6980   12.4570   23.8090 C   0  0  0  0  0  0  0  0  0  0  0  0
   22.7910   12.7790   22.5080 N   0  0  0  0  0  0  0  0  0  0  0  0
   20.9540   12.6770   17.5300 C   0  0  0  0  0  0  0  0  0  0  0  0
   20.7870   12.8330   16.1660 C   0  0  0  0  0  0  0  0  0  0  0  0
   21.4630   12.0260   15.2720 C   0  0  0  0  0  0  0  0  0  0  0  0
   21.2580   12.1800   13.9380 F   0  0  0  0  0  0  0  0  0  0  0  0
   22.2990    9.4860   13.6760 C   0  0  0  0  0  0  0  0  0  0  0  0
   21.1810    8.3380   14.4400 S   0  0  0  0  0  0  0  0  0  0  0  0
   20.9260    7.2950   13.4620 O   0  0  0  0  0  0  0  0  0  0  0  0
   20.1620    9.0100   15.1830 O   0  0  0  0  0  0  0  0  0  0  0  0
   21.6868    6.5527   17.3821 H   0  0  0  0  0  0  0  0  0  0  0  0
   20.5915    6.3219   15.9772 H   0  0  0  0  0  0  0  0  0  0  0  0
   22.2230    5.5702   15.9772 H   0  0  0  0  0  0  0  0  0  0  0  0
   25.2250    7.4490   16.7980 H   0  0  0  0  0  0  0  0  0  0  0  0
   23.9000    6.3820   16.9130 H   0  0  0  0  0  0  0  0  0  0  0  0
   24.7779   11.6002   14.6919 H   0  0  0  0  0  0  0  0  0  0  0  0
   24.7873   10.4218   13.3363 H   0  0  0  0  0  0  0  0  0  0  0  0
   23.6134   11.7814   13.3363 H   0  0  0  0  0  0  0  0  0  0  0  0
   23.2180   10.1557   17.4476 H   0  0  0  0  0  0  0  0  0  0  0  0
   21.6130   10.6680   19.7170 H   0  0  0  0  0  0  0  0  0  0  0  0
   22.6498    9.6496   21.2132 H   0  0  0  0  0  0  0  0  0  0  0  0
   22.4626    9.0972   23.6497 H   0  0  0  0  0  0  0  0  0  0  0  0
   22.7137   13.2683   24.5517 H   0  0  0  0  0  0  0  0  0  0  0  0
   20.4115   13.3149   18.2433 H   0  0  0  0  0  0  0  0  0  0  0  0
   20.1066   13.6103   15.7881 H   0  0  0  0  0  0  0  0  0  0  0  0
   21.7203   10.2353   13.1159 H   0  0  0  0  0  0  0  0  0  0  0  0
   22.9649    8.9328   12.9974 H   0  0  0  0  0  0  0  0  0  0  0  0
  1  2  1  0
  2  3  1  0
  3  4  1  0
  3  5  2  0
  5  6  1  0
  6  7  1  6
  6  8  1  0
  8  9  2  0
  9 10  1  0
 10 11  1  0
 11 12  1  0
 12 13  2  0
 12 14  1  0
 14 15  2  0
 15 16  1  0
 16 17  2  0
 17 18  1  0
 17 19  1  0
 19 20  2  0
 10 21  2  0
 21 22  1  0
 22 23  2  0
 23 24  1  0
  6 25  1  0
 25 26  1  0
 26 27  2  0
 26 28  2  0
 26  2  1  0
 23  8  1  0
 20 14  1  0
  1 29  1  0
  1 30  1  0
  1 31  1  0
  4 32  1  0
  4 33  1  0
  7 34  1  0
  7 35  1  0
  7 36  1  0
  9 37  1  0
 11 38  1  0
 15 39  1  0
 16 40  1  0
 19 41  1  0
 21 42  1  0
 22 43  1  0
 25 44  1  0
 25 45  1  0
M  END
>  <meeko>  (17)
{"is_sidechain": false}

>  <source_group>  (17)
BACE1-457

>  <source_system>  (17)
BACE1_verubecestat

>  <source_run>  (17)
alternate_457_seed1103_ex32

>  <source_seed>  (17)
1103

>  <vina_pose_rank>  (17)
17

>  <vina_affinity_kcal_mol>  (17)
-6.7789999999999999

>  <vina_rmsd_to_crystal_angstrom>  (17)
7.4505999999999997

$$$$
BACE1_verubecestat__alternate_457_seed1103_ex32__pose18
     RDKit          3D

 45 47  0  0  0  0  0  0  0  0999 V2000
   23.6370   10.9560   12.5370 C   0  0  0  0  0  0  0  0  0  0  0  0
   23.1160   10.7340   13.9000 N   0  0  0  0  0  0  0  0  0  0  0  0
   23.8460   11.0580   15.0660 C   0  0  0  0  0  0  0  0  0  0  0  0
   25.0110   11.7340   14.8210 N   0  0  0  0  0  0  0  0  0  0  0  0
   23.4510   10.7720   16.2680 N   0  0  0  0  0  0  0  0  0  0  0  0
   22.2540    9.9680   16.5120 C   0  0  2  0  0  0  0  0  0  0  0  0
   21.9200   10.2840   17.9720 C   0  0  0  0  0  0  0  0  0  0  0  0
   22.5310    8.4780   16.3820 C   0  0  0  0  0  0  0  0  0  0  0  0
   23.8000    8.0080   16.0440 C   0  0  0  0  0  0  0  0  0  0  0  0
   24.0780    6.6660   15.9180 C   0  0  0  0  0  0  0  0  0  0  0  0
   25.3940    6.3280   15.5760 N   0  0  0  0  0  0  0  0  0  0  0  0
   25.9110    6.0580   14.3220 C   0  0  0  0  0  0  0  0  0  0  0  0
   25.2510    5.9450   13.2970 O   0  0  0  0  0  0  0  0  0  0  0  0
   27.3880    5.9390   14.2580 C   0  0  0  0  0  0  0  0  0  0  0  0
   28.1030    5.5930   15.3910 C   0  0  0  0  0  0  0  0  0  0  0  0
   29.4790    5.4980   15.2760 C   0  0  0  0  0  0  0  0  0  0  0  0
   30.0850    5.7430   14.0590 C   0  0  0  0  0  0  0  0  0  0  0  0
   31.4180    5.6720   13.9000 F   0  0  0  0  0  0  0  0  0  0  0  0
   29.2890    6.0870   12.9890 C   0  0  0  0  0  0  0  0  0  0  0  0
   27.9530    6.1920   13.0730 N   0  0  0  0  0  0  0  0  0  0  0  0
   23.0900    5.7180   16.1490 C   0  0  0  0  0  0  0  0  0  0  0  0
   21.8240    6.1660   16.4820 C   0  0  0  0  0  0  0  0  0  0  0  0
   21.5510    7.5170   16.5740 C   0  0  0  0  0  0  0  0  0  0  0  0
   20.2930    7.9310   16.8740 F   0  0  0  0  0  0  0  0  0  0  0  0
   21.1040   10.4810   15.6730 C   0  0  0  0  0  0  0  0  0  0  0  0
   21.4540   10.2880   13.9440 S   0  0  0  0  0  0  0  0  0  0  0  0
   20.7110   11.3270   13.2530 O   0  0  0  0  0  0  0  0  0  0  0  0
   21.4590    8.9110   13.5570 O   0  0  0  0  0  0  0  0  0  0  0  0
   24.6475   11.3866   12.5963 H   0  0  0  0  0  0  0  0  0  0  0  0
   23.6780    9.9972   11.9994 H   0  0  0  0  0  0  0  0  0  0  0  0
   22.9738   11.6497   11.9994 H   0  0  0  0  0  0  0  0  0  0  0  0
   25.5900   12.0040   15.5710 H   0  0  0  0  0  0  0  0  0  0  0  0
   25.2700   11.9510   13.8960 H   0  0  0  0  0  0  0  0  0  0  0  0
   22.5586    9.6799   18.6333 H   0  0  0  0  0  0  0  0  0  0  0  0
   22.0980   11.3520   18.1660 H   0  0  0  0  0  0  0  0  0  0  0  0
   20.8635   10.0472   18.1660 H   0  0  0  0  0  0  0  0  0  0  0  0
   24.6069    8.7355   15.8721 H   0  0  0  0  0  0  0  0  0  0  0  0
   26.0320    6.2770   16.3240 H   0  0  0  0  0  0  0  0  0  0  0  0
   27.5963    5.4005   16.3482 H   0  0  0  0  0  0  0  0  0  0  0  0
   30.0883    5.2282   16.1512 H   0  0  0  0  0  0  0  0  0  0  0  0
   29.7704    6.2851   12.0200 H   0  0  0  0  0  0  0  0  0  0  0  0
   23.3074    4.6426   16.0696 H   0  0  0  0  0  0  0  0  0  0  0  0
   21.0240    5.4364   16.6761 H   0  0  0  0  0  0  0  0  0  0  0  0
   20.1943    9.9151   15.9226 H   0  0  0  0  0  0  0  0  0  0  0  0
   20.9592   11.5502   15.8873 H   0  0  0  0  0  0  0  0  0  0  0  0
  1  2  1  0
  2  3  1  0
  3  4  1  0
  3  5  2  0
  5  6  1  0
  6  7  1  1
  6  8  1  0
  8  9  2  0
  9 10  1  0
 10 11  1  0
 11 12  1  0
 12 13  2  0
 12 14  1  0
 14 15  2  0
 15 16  1  0
 16 17  2  0
 17 18  1  0
 17 19  1  0
 19 20  2  0
 10 21  2  0
 21 22  1  0
 22 23  2  0
 23 24  1  0
  6 25  1  0
 25 26  1  0
 26 27  2  0
 26 28  2  0
 26  2  1  0
 23  8  1  0
 20 14  1  0
  1 29  1  0
  1 30  1  0
  1 31  1  0
  4 32  1  0
  4 33  1  0
  7 34  1  0
  7 35  1  0
  7 36  1  0
  9 37  1  0
 11 38  1  0
 15 39  1  0
 16 40  1  0
 19 41  1  0
 21 42  1  0
 22 43  1  0
 25 44  1  0
 25 45  1  0
M  END
>  <meeko>  (18)
{"is_sidechain": false}

>  <source_group>  (18)
BACE1-457

>  <source_system>  (18)
BACE1_verubecestat

>  <source_run>  (18)
alternate_457_seed1103_ex32

>  <source_seed>  (18)
1103

>  <vina_pose_rank>  (18)
18

>  <vina_affinity_kcal_mol>  (18)
-6.7640000000000002

>  <vina_rmsd_to_crystal_angstrom>  (18)
8.1893999999999991

$$$$
BACE1_verubecestat__alternate_457_seed1103_ex32__pose19
     RDKit          3D

 45 47  0  0  0  0  0  0  0  0999 V2000
   25.4680   10.7840   19.2490 C   0  0  0  0  0  0  0  0  0  0  0  0
   24.2310   11.4970   18.8730 N   0  0  0  0  0  0  0  0  0  0  0  0
   23.0210   11.3690   19.5900 C   0  0  0  0  0  0  0  0  0  0  0  0
   23.1340   10.6480   20.7490 N   0  0  0  0  0  0  0  0  0  0  0  0
   21.8990   11.9010   19.2130 N   0  0  0  0  0  0  0  0  0  0  0  0
   21.7680   12.5870   17.9290 C   0  0  2  0  0  0  0  0  0  0  0  0
   20.5010   13.4260   18.1160 C   0  0  0  0  0  0  0  0  0  0  0  0
   21.5470   11.6140   16.7810 C   0  0  0  0  0  0  0  0  0  0  0  0
   21.5210   10.2370   17.0000 C   0  0  0  0  0  0  0  0  0  0  0  0
   21.3260    9.3330   15.9810 C   0  0  0  0  0  0  0  0  0  0  0  0
   21.3190    7.9780   16.3360 N   0  0  0  0  0  0  0  0  0  0  0  0
   22.3720    7.0810   16.3170 C   0  0  0  0  0  0  0  0  0  0  0  0
   23.4810    7.3070   15.8510 O   0  0  0  0  0  0  0  0  0  0  0  0
   22.0990    5.7690   16.9530 C   0  0  0  0  0  0  0  0  0  0  0  0
   22.9580    4.7060   16.7400 C   0  0  0  0  0  0  0  0  0  0  0  0
   22.6540    3.5050   17.3560 C   0  0  0  0  0  0  0  0  0  0  0  0
   21.5290    3.4050   18.1520 C   0  0  0  0  0  0  0  0  0  0  0  0
   21.1890    2.2580   18.7620 F   0  0  0  0  0  0  0  0  0  0  0  0
   20.7320    4.5180   18.2980 C   0  0  0  0  0  0  0  0  0  0  0  0
   20.9980    5.6950   17.7080 N   0  0  0  0  0  0  0  0  0  0  0  0
   21.1230    9.7740   14.6790 C   0  0  0  0  0  0  0  0  0  0  0  0
   21.1500   11.1370   14.4430 C   0  0  0  0  0  0  0  0  0  0  0  0
   21.3780   12.0310   15.4700 C   0  0  0  0  0  0  0  0  0  0  0  0
   21.4290   13.3620   15.2060 F   0  0  0  0  0  0  0  0  0  0  0  0
   22.9150   13.5540   17.7370 C   0  0  0  0  0  0  0  0  0  0  0  0
   24.4600   12.6840   17.6480 S   0  0  0  0  0  0  0  0  0  0  0  0
   25.4800   13.6020   18.1240 O   0  0  0  0  0  0  0  0  0  0  0  0
   24.5660   11.9190   16.4450 O   0  0  0  0  0  0  0  0  0  0  0  0
   25.5464   10.7388   20.3453 H   0  0  0  0  0  0  0  0  0  0  0  0
   25.4411    9.7628   18.8409 H   0  0  0  0  0  0  0  0  0  0  0  0
   26.3381   11.3191   18.8409 H   0  0  0  0  0  0  0  0  0  0  0  0
   22.3440   10.5040   21.3180 H   0  0  0  0  0  0  0  0  0  0  0  0
   24.0060   10.2740   21.0120 H   0  0  0  0  0  0  0  0  0  0  0  0
   20.3032   13.5570   19.1901 H   0  0  0  0  0  0  0  0  0  0  0  0
   20.6406   14.4107   17.6461 H   0  0  0  0  0  0  0  0  0  0  0  0
   19.6489   12.9131   17.6461 H   0  0  0  0  0  0  0  0  0  0  0  0
   21.6614    9.8600   18.0238 H   0  0  0  0  0  0  0  0  0  0  0  0
   20.4540    7.6180   16.6390 H   0  0  0  0  0  0  0  0  0  0  0  0
   23.8496    4.8116   16.1045 H   0  0  0  0  0  0  0  0  0  0  0  0
   23.3067    2.6313   17.2123 H   0  0  0  0  0  0  0  0  0  0  0  0
   19.8339    4.4396   18.9283 H   0  0  0  0  0  0  0  0  0  0  0  0
   20.9461    9.0608   13.8604 H   0  0  0  0  0  0  0  0  0  0  0  0
   20.9875   11.5138   13.4224 H   0  0  0  0  0  0  0  0  0  0  0  0
   22.7620   14.1150   16.8032 H   0  0  0  0  0  0  0  0  0  0  0  0
   22.9452   14.2421   18.5947 H   0  0  0  0  0  0  0  0  0  0  0  0
  1  2  1  0
  2  3  1  0
  3  4  1  0
  3  5  2  0
  5  6  1  0
  6  7  1  1
  6  8  1  0
  8  9  2  0
  9 10  1  0
 10 11  1  0
 11 12  1  0
 12 13  2  0
 12 14  1  0
 14 15  2  0
 15 16  1  0
 16 17  2  0
 17 18  1  0
 17 19  1  0
 19 20  2  0
 10 21  2  0
 21 22  1  0
 22 23  2  0
 23 24  1  0
  6 25  1  0
 25 26  1  0
 26 27  2  0
 26 28  2  0
 26  2  1  0
 23  8  1  0
 20 14  1  0
  1 29  1  0
  1 30  1  0
  1 31  1  0
  4 32  1  0
  4 33  1  0
  7 34  1  0
  7 35  1  0
  7 36  1  0
  9 37  1  0
 11 38  1  0
 15 39  1  0
 16 40  1  0
 19 41  1  0
 21 42  1  0
 22 43  1  0
 25 44  1  0
 25 45  1  0
M  END
>  <meeko>  (19)
{"is_sidechain": false}

>  <source_group>  (19)
BACE1-457

>  <source_system>  (19)
BACE1_verubecestat

>  <source_run>  (19)
alternate_457_seed1103_ex32

>  <source_seed>  (19)
1103

>  <vina_pose_rank>  (19)
19

>  <vina_affinity_kcal_mol>  (19)
-6.734

>  <vina_rmsd_to_crystal_angstrom>  (19)
7.3851000000000004

$$$$
BACE1_verubecestat__alternate_457_seed1103_ex32__pose20
     RDKit          3D

 45 47  0  0  0  0  0  0  0  0999 V2000
   27.8430   12.0830   18.8730 C   0  0  0  0  0  0  0  0  0  0  0  0
   26.4100   12.2640   19.1800 N   0  0  0  0  0  0  0  0  0  0  0  0
   25.7640   13.5190   19.1290 C   0  0  0  0  0  0  0  0  0  0  0  0
   26.5430   14.5250   18.6240 N   0  0  0  0  0  0  0  0  0  0  0  0
   24.5360   13.7140   19.4980 N   0  0  0  0  0  0  0  0  0  0  0  0
   23.7440   12.6550   20.1230 C   0  0  2  0  0  0  0  0  0  0  0  0
   22.3070   13.1510   19.9460 C   0  0  0  0  0  0  0  0  0  0  0  0
   24.0390   12.5230   21.6090 C   0  0  0  0  0  0  0  0  0  0  0  0
   25.1200   13.1840   22.1900 C   0  0  0  0  0  0  0  0  0  0  0  0
   25.4120   13.0810   23.5310 C   0  0  0  0  0  0  0  0  0  0  0  0
   26.5260   13.7970   23.9880 N   0  0  0  0  0  0  0  0  0  0  0  0
   27.8480   13.3930   24.0270 C   0  0  0  0  0  0  0  0  0  0  0  0
   28.2470   12.2620   23.7780 O   0  0  0  0  0  0  0  0  0  0  0  0
   28.8260   14.4540   24.3680 C   0  0  0  0  0  0  0  0  0  0  0  0
   28.5550   15.3380   25.3990 C   0  0  0  0  0  0  0  0  0  0  0  0
   29.5000   16.3100   25.6730 C   0  0  0  0  0  0  0  0  0  0  0  0
   30.6630   16.3680   24.9290 C   0  0  0  0  0  0  0  0  0  0  0  0
   31.6060   17.2990   25.1530 F   0  0  0  0  0  0  0  0  0  0  0  0
   30.8400   15.4480   23.9210 C   0  0  0  0  0  0  0  0  0  0  0  0
   29.9380   14.4970   23.6270 N   0  0  0  0  0  0  0  0  0  0  0  0
   24.6090   12.3180   24.3690 C   0  0  0  0  0  0  0  0  0  0  0  0
   23.5320   11.6530   23.8090 C   0  0  0  0  0  0  0  0  0  0  0  0
   23.2710   11.7390   22.4560 C   0  0  0  0  0  0  0  0  0  0  0  0
   22.2250   11.0530   21.9270 F   0  0  0  0  0  0  0  0  0  0  0  0
   23.8720   11.3740   19.3290 C   0  0  0  0  0  0  0  0  0  0  0  0
   25.5460   10.7850   19.3540 S   0  0  0  0  0  0  0  0  0  0  0  0
   25.7370   10.0280   18.1290 O   0  0  0  0  0  0  0  0  0  0  0  0
   25.9220   10.3200   20.6520 O   0  0  0  0  0  0  0  0  0  0  0  0
   28.4127   12.0110   19.8112 H   0  0  0  0  0  0  0  0  0  0  0  0
   27.9793   11.1605   18.2896 H   0  0  0  0  0  0  0  0  0  0  0  0
   28.2044   12.9426   18.2896 H   0  0  0  0  0  0  0  0  0  0  0  0
   26.1810   15.4370   18.5490 H   0  0  0  0  0  0  0  0  0  0  0  0
   27.4660   14.3360   18.3370 H   0  0  0  0  0  0  0  0  0  0  0  0
   21.8494   13.3090   20.9337 H   0  0  0  0  0  0  0  0  0  0  0  0
   22.3125   14.0993   19.3885 H   0  0  0  0  0  0  0  0  0  0  0  0
   21.7264   12.4013   19.3885 H   0  0  0  0  0  0  0  0  0  0  0  0
   25.7627   13.8104   21.5539 H   0  0  0  0  0  0  0  0  0  0  0  0
   26.3440   14.7050   24.3240 H   0  0  0  0  0  0  0  0  0  0  0  0
   27.6226   15.2696   25.9786 H   0  0  0  0  0  0  0  0  0  0  0  0
   29.3262   17.0354   26.4815 H   0  0  0  0  0  0  0  0  0  0  0  0
   31.7649   15.4936   23.3273 H   0  0  0  0  0  0  0  0  0  0  0  0
   24.8226   12.2444   25.4455 H   0  0  0  0  0  0  0  0  0  0  0  0
   22.8750   11.0476   24.4508 H   0  0  0  0  0  0  0  0  0  0  0  0
   23.2137   10.6098   19.7680 H   0  0  0  0  0  0  0  0  0  0  0  0
   23.5829   11.5737   18.2866 H   0  0  0  0  0  0  0  0  0  0  0  0
  1  2  1  0
  2  3  1  0
  3  4  1  0
  3  5  2  0
  5  6  1  0
  6  7  1  1
  6  8  1  0
  8  9  2  0
  9 10  1  0
 10 11  1  0
 11 12  1  0
 12 13  2  0
 12 14  1  0
 14 15  2  0
 15 16  1  0
 16 17  2  0
 17 18  1  0
 17 19  1  0
 19 20  2  0
 10 21  2  0
 21 22  1  0
 22 23  2  0
 23 24  1  0
  6 25  1  0
 25 26  1  0
 26 27  2  0
 26 28  2  0
 26  2  1  0
 23  8  1  0
 20 14  1  0
  1 29  1  0
  1 30  1  0
  1 31  1  0
  4 32  1  0
  4 33  1  0
  7 34  1  0
  7 35  1  0
  7 36  1  0
  9 37  1  0
 11 38  1  0
 15 39  1  0
 16 40  1  0
 19 41  1  0
 21 42  1  0
 22 43  1  0
 25 44  1  0
 25 45  1  0
M  END
>  <meeko>  (20)
{"is_sidechain": false}

>  <source_group>  (20)
BACE1-457

>  <source_system>  (20)
BACE1_verubecestat

>  <source_run>  (20)
alternate_457_seed1103_ex32

>  <source_seed>  (20)
1103

>  <vina_pose_rank>  (20)
20

>  <vina_affinity_kcal_mol>  (20)
-6.6719999999999997

>  <vina_rmsd_to_crystal_angstrom>  (20)
5.8795000000000002

$$$$
