BACE1_verubecestat__alternate_457_seed1103_ex32__pose01


 31 33  0  0  0  0  0  0  0  0999 V2000
   23.9820   12.5600   20.7650 C   0  0  0  0  0  0  0  0  0  0  0  0
   23.4710   12.3110   22.0380 C   0  0  0  0  0  0  0  0  0  0  0  0
   22.6480   11.2400   22.3040 C   0  0  0  0  0  0  0  0  0  0  0  0
   22.2760   10.3690   21.2870 C   0  0  0  0  0  0  0  0  0  0  0  0
   22.7770   10.6000   20.0180 C   0  0  0  0  0  0  0  0  0  0  0  0
   23.6270   11.6600   19.7730 C   0  0  0  0  0  0  0  0  0  0  0  0
   24.1280   11.8470   18.5250 F   0  0  0  0  0  0  0  0  0  0  0  0
   27.7650   12.7090   23.5610 C   0  0  0  0  0  0  0  0  0  0  0  0
   26.8670   13.1480   22.4750 N   0  0  0  0  0  0  0  0  0  0  0  0
   25.9670   14.2280   22.6090 C   0  0  0  0  0  0  0  0  0  0  0  0
   26.1060   14.9260   23.7780 N   0  0  0  0  0  0  0  0  0  0  0  0
   25.0960   14.5590   21.7050 N   0  0  0  0  0  0  0  0  0  0  0  0
   24.8920   13.7510   20.5040 C   0  0  0  0  0  0  0  0  0  0  0  0
   24.1790   14.7190   19.5560 C   0  0  0  0  0  0  0  0  0  0  0  0
   26.2240   13.4120   19.8720 C   0  0  0  0  0  0  0  0  0  0  0  0
   27.1940   12.3990   20.9600 S   0  0  0  0  0  0  0  0  0  0  0  0
   28.5860   12.6640   20.6400 O   0  0  0  0  0  0  0  0  0  0  0  0
   26.6370   11.0900   21.0980 O   0  0  0  0  0  0  0  0  0  0  0  0
   25.5230   15.6970   23.9640 H   0  0  0  0  0  0  0  0  0  0  0  0
   26.7900   14.6570   24.4340 H   0  0  0  0  0  0  0  0  0  0  0  0
   22.2010   11.1040   23.6240 N   0  0  0  0  0  0  0  0  0  0  0  0
   22.9270   11.2430   24.7940 C   0  0  0  0  0  0  0  0  0  0  0  0
   24.1410   11.3870   24.8560 O   0  0  0  0  0  0  0  0  0  0  0  0
   21.2480   10.8820   23.7340 H   0  0  0  0  0  0  0  0  0  0  0  0
   22.1250   11.2480   26.0410 C   0  0  0  0  0  0  0  0  0  0  0  0
   20.9110   10.5840   26.0840 C   0  0  0  0  0  0  0  0  0  0  0  0
   20.2030   10.6230   27.2730 C   0  0  0  0  0  0  0  0  0  0  0  0
   20.7180   11.3040   28.3580 C   0  0  0  0  0  0  0  0  0  0  0  0
   20.0630   11.3770   29.5290 F   0  0  0  0  0  0  0  0  0  0  0  0
   21.9310   11.9390   28.2160 C   0  0  0  0  0  0  0  0  0  0  0  0
   22.6380   11.9240   27.0740 N   0  0  0  0  0  0  0  0  0  0  0  0
  8  9  1  0
  9 10  1  0
 10 11  1  0
 10 12  2  0
 12 13  1  0
 13 14  1  0
 13  1  1  0
  1  2  2  0
  2  3  1  0
  3 21  1  0
 21 22  1  0
 22 23  2  0
 22 25  1  0
 25 26  2  0
 26 27  1  0
 27 28  2  0
 28 29  1  0
 28 30  1  0
 30 31  2  0
  3  4  2  0
  4  5  1  0
  5  6  2  0
  6  7  1  0
 13 15  1  0
 15 16  1  0
 16 17  2  0
 16 18  2  0
 16  9  1  0
  6  1  1  0
 31 25  1  0
 11 19  1  0
 11 20  1  0
 21 24  1  0
M  END
> <meeko>
{"is_sidechain": false}

> <source_group>
BACE1-457

> <source_system>
BACE1_verubecestat

> <source_run>
alternate_457_seed1103_ex32

> <source_seed>
1103

> <vina_pose_rank>
1

> <vina_affinity_kcal_mol>
-8.2889999999999997

> <vina_rmsd_to_crystal_angstrom>
6.9958999999999998

> <minimizedAffinity>
-8.29220

> <CNNscore>
0.0377119966

> <CNNaffinity>
4.0703425407

> <CNN_VS>
0.1535007507

> <CNNaffinity_variance>
1.4357109070

$$$$
BACE1_verubecestat__alternate_457_seed1103_ex32__pose02


 31 33  0  0  0  0  0  0  0  0999 V2000
   25.3950   13.3950   20.7580 C   0  0  0  0  0  0  0  0  0  0  0  0
   24.7970   12.8130   21.8740 C   0  0  0  0  0  0  0  0  0  0  0  0
   23.4730   12.4360   21.8870 C   0  0  0  0  0  0  0  0  0  0  0  0
   22.6700   12.6480   20.7740 C   0  0  0  0  0  0  0  0  0  0  0  0
   23.2480   13.2220   19.6550 C   0  0  0  0  0  0  0  0  0  0  0  0
   24.5860   13.5660   19.6450 C   0  0  0  0  0  0  0  0  0  0  0  0
   25.1360   14.1000   18.5250 F   0  0  0  0  0  0  0  0  0  0  0  0
   28.3630    9.7520   21.0310 C   0  0  0  0  0  0  0  0  0  0  0  0
   27.9680   11.1700   20.9170 N   0  0  0  0  0  0  0  0  0  0  0  0
   28.0040   12.0690   22.0060 C   0  0  0  0  0  0  0  0  0  0  0  0
   28.5790   11.5510   23.1350 N   0  0  0  0  0  0  0  0  0  0  0  0
   27.5590   13.2860   21.9520 N   0  0  0  0  0  0  0  0  0  0  0  0
   26.8620   13.7980   20.7730 C   0  0  0  0  0  0  0  0  0  0  0  0
   26.9560   15.3160   20.9510 C   0  0  0  0  0  0  0  0  0  0  0  0
   27.6350   13.4490   19.5210 C   0  0  0  0  0  0  0  0  0  0  0  0
   27.7060   11.6900   19.2970 S   0  0  0  0  0  0  0  0  0  0  0  0
   28.9240   11.4160   18.5560 O   0  0  0  0  0  0  0  0  0  0  0  0
   26.4250   11.1480   18.9660 O   0  0  0  0  0  0  0  0  0  0  0  0
   28.6500   12.1010   23.9490 H   0  0  0  0  0  0  0  0  0  0  0  0
   28.9220   10.6280   23.1340 H   0  0  0  0  0  0  0  0  0  0  0  0
   22.9950   11.8640   23.0740 N   0  0  0  0  0  0  0  0  0  0  0  0
   22.4650   12.5030   24.1800 C   0  0  0  0  0  0  0  0  0  0  0  0
   22.4470   13.7150   24.3520 O   0  0  0  0  0  0  0  0  0  0  0  0
   23.0430   10.8820   23.1270 H   0  0  0  0  0  0  0  0  0  0  0  0
   21.8510   11.6110   25.1930 C   0  0  0  0  0  0  0  0  0  0  0  0
   21.7840   10.2480   24.9640 C   0  0  0  0  0  0  0  0  0  0  0  0
   21.1990    9.4620   25.9410 C   0  0  0  0  0  0  0  0  0  0  0  0
   20.7140   10.0480   27.0950 C   0  0  0  0  0  0  0  0  0  0  0  0
   20.1300    9.3270   28.0670 F   0  0  0  0  0  0  0  0  0  0  0  0
   20.8210   11.4140   27.2290 C   0  0  0  0  0  0  0  0  0  0  0  0
   21.3780   12.2020   26.2950 N   0  0  0  0  0  0  0  0  0  0  0  0
  8  9  1  0
  9 10  1  0
 10 11  1  0
 10 12  2  0
 12 13  1  0
 13 14  1  0
 13  1  1  0
  1  2  2  0
  2  3  1  0
  3 21  1  0
 21 22  1  0
 22 23  2  0
 22 25  1  0
 25 26  2  0
 26 27  1  0
 27 28  2  0
 28 29  1  0
 28 30  1  0
 30 31  2  0
  3  4  2  0
  4  5  1  0
  5  6  2  0
  6  7  1  0
 13 15  1  0
 15 16  1  0
 16 17  2  0
 16 18  2  0
 16  9  1  0
  6  1  1  0
 31 25  1  0
 11 19  1  0
 11 20  1  0
 21 24  1  0
M  END
> <meeko>
{"is_sidechain": false}

> <source_group>
BACE1-457

> <source_system>
BACE1_verubecestat

> <source_run>
alternate_457_seed1103_ex32

> <source_seed>
1103

> <vina_pose_rank>
2

> <vina_affinity_kcal_mol>
-8.0109999999999992

> <vina_rmsd_to_crystal_angstrom>
7.3253000000000004

> <minimizedAffinity>
-7.91726

> <CNNscore>
0.0435434468

> <CNNaffinity>
4.4444127083

> <CNN_VS>
0.1935250461

> <CNNaffinity_variance>
0.8607645631

$$$$
BACE1_verubecestat__alternate_457_seed1103_ex32__pose03


 31 33  0  0  0  0  0  0  0  0999 V2000
   22.6180    8.8040   16.7330 C   0  0  0  0  0  0  0  0  0  0  0  0
   23.8370    8.2890   16.2950 C   0  0  0  0  0  0  0  0  0  0  0  0
   25.0100    9.0050   16.3720 C   0  0  0  0  0  0  0  0  0  0  0  0
   25.0120   10.2990   16.8780 C   0  0  0  0  0  0  0  0  0  0  0  0
   23.8110   10.8260   17.3210 C   0  0  0  0  0  0  0  0  0  0  0  0
   22.6480   10.0830   17.2670 C   0  0  0  0  0  0  0  0  0  0  0  0
   21.4880   10.6130   17.7350 F   0  0  0  0  0  0  0  0  0  0  0  0
   22.7160    4.8280   19.2490 C   0  0  0  0  0  0  0  0  0  0  0  0
   22.1300    5.8570   18.3670 N   0  0  0  0  0  0  0  0  0  0  0  0
   22.0030    5.6920   16.9690 C   0  0  0  0  0  0  0  0  0  0  0  0
   22.3280    4.4380   16.5260 N   0  0  0  0  0  0  0  0  0  0  0  0
   21.5930    6.6250   16.1670 N   0  0  0  0  0  0  0  0  0  0  0  0
   21.3400    7.9860   16.6380 C   0  0  0  0  0  0  0  0  0  0  0  0
   20.4590    8.5730   15.5310 C   0  0  0  0  0  0  0  0  0  0  0  0
   20.5050    7.9530   17.8980 C   0  0  0  0  0  0  0  0  0  0  0  0
   21.3900    7.1590   19.2160 S   0  0  0  0  0  0  0  0  0  0  0  0
   20.3900    6.5830   20.0980 O   0  0  0  0  0  0  0  0  0  0  0  0
   22.4950    7.9490   19.6610 O   0  0  0  0  0  0  0  0  0  0  0  0
   22.2710    4.2250   15.5670 H   0  0  0  0  0  0  0  0  0  0  0  0
   22.6190    3.7490   17.1670 H   0  0  0  0  0  0  0  0  0  0  0  0
   26.1650    8.3720   15.8950 N   0  0  0  0  0  0  0  0  0  0  0  0
   27.3710    8.1850   16.5460 C   0  0  0  0  0  0  0  0  0  0  0  0
   27.6690    8.6710   17.6290 O   0  0  0  0  0  0  0  0  0  0  0  0
   26.1110    8.0140   14.9790 H   0  0  0  0  0  0  0  0  0  0  0  0
   28.3320    7.2910   15.8550 C   0  0  0  0  0  0  0  0  0  0  0  0
   27.9450    6.0140   15.4870 C   0  0  0  0  0  0  0  0  0  0  0  0
   28.8820    5.2220   14.8470 C   0  0  0  0  0  0  0  0  0  0  0  0
   30.1470    5.7190   14.5970 C   0  0  0  0  0  0  0  0  0  0  0  0
   31.0920    4.9840   13.9870 F   0  0  0  0  0  0  0  0  0  0  0  0
   30.4390    7.0000   15.0070 C   0  0  0  0  0  0  0  0  0  0  0  0
   29.5520    7.7900   15.6350 N   0  0  0  0  0  0  0  0  0  0  0  0
  8  9  1  0
  9 10  1  0
 10 11  1  0
 10 12  2  0
 12 13  1  0
 13 14  1  0
 13  1  1  0
  1  2  2  0
  2  3  1  0
  3 21  1  0
 21 22  1  0
 22 23  2  0
 22 25  1  0
 25 26  2  0
 26 27  1  0
 27 28  2  0
 28 29  1  0
 28 30  1  0
 30 31  2  0
  3  4  2  0
  4  5  1  0
  5  6  2  0
  6  7  1  0
 13 15  1  0
 15 16  1  0
 16 17  2  0
 16 18  2  0
 16  9  1  0
  6  1  1  0
 31 25  1  0
 11 19  1  0
 11 20  1  0
 21 24  1  0
M  END
> <meeko>
{"is_sidechain": false}

> <source_group>
BACE1-457

> <source_system>
BACE1_verubecestat

> <source_run>
alternate_457_seed1103_ex32

> <source_seed>
1103

> <vina_pose_rank>
3

> <vina_affinity_kcal_mol>
-7.9450000000000003

> <vina_rmsd_to_crystal_angstrom>
6.5007999999999999

> <minimizedAffinity>
-7.90250

> <CNNscore>
0.1456803530

> <CNNaffinity>
4.4100313187

> <CNN_VS>
0.6424549222

> <CNNaffinity_variance>
1.1908499002

$$$$
BACE1_verubecestat__alternate_457_seed1103_ex32__pose04


 31 33  0  0  0  0  0  0  0  0999 V2000
   26.3400   12.5560   21.8130 C   0  0  0  0  0  0  0  0  0  0  0  0
   25.4130   12.1330   22.7640 C   0  0  0  0  0  0  0  0  0  0  0  0
   25.3250   12.7060   24.0130 C   0  0  0  0  0  0  0  0  0  0  0  0
   26.1890   13.7300   24.3790 C   0  0  0  0  0  0  0  0  0  0  0  0
   27.1140   14.1650   23.4470 C   0  0  0  0  0  0  0  0  0  0  0  0
   27.1690   13.6020   22.1870 C   0  0  0  0  0  0  0  0  0  0  0  0
   28.0660   14.0680   21.2800 F   0  0  0  0  0  0  0  0  0  0  0  0
   22.2430   12.5600   19.4970 C   0  0  0  0  0  0  0  0  0  0  0  0
   23.6830   12.3060   19.6980 N   0  0  0  0  0  0  0  0  0  0  0  0
   24.2040   11.0310   20.0160 C   0  0  0  0  0  0  0  0  0  0  0  0
   23.2760   10.0260   19.9700 N   0  0  0  0  0  0  0  0  0  0  0  0
   25.4500   10.8110   20.3030 N   0  0  0  0  0  0  0  0  0  0  0  0
   26.4100   11.9050   20.4410 C   0  0  0  0  0  0  0  0  0  0  0  0
   27.7600   11.1950   20.2990 C   0  0  0  0  0  0  0  0  0  0  0  0
   26.2850   12.8570   19.2720 C   0  0  0  0  0  0  0  0  0  0  0  0
   24.6890   13.6340   19.2650 S   0  0  0  0  0  0  0  0  0  0  0  0
   24.3950   13.9620   17.8810 O   0  0  0  0  0  0  0  0  0  0  0  0
   24.5410   14.5460   20.3560 O   0  0  0  0  0  0  0  0  0  0  0  0
   23.5420    9.1000   20.1760 H   0  0  0  0  0  0  0  0  0  0  0  0
   22.3420   10.2270   19.7310 H   0  0  0  0  0  0  0  0  0  0  0  0
   24.3510   12.1850   24.8750 N   0  0  0  0  0  0  0  0  0  0  0  0
   23.0400   12.5970   25.0360 C   0  0  0  0  0  0  0  0  0  0  0  0
   22.5470   13.5940   24.5250 O   0  0  0  0  0  0  0  0  0  0  0  0
   24.6360   11.4300   25.4380 H   0  0  0  0  0  0  0  0  0  0  0  0
   22.1960   11.7100   25.8730 C   0  0  0  0  0  0  0  0  0  0  0  0
   21.5480   10.6300   25.3000 C   0  0  0  0  0  0  0  0  0  0  0  0
   20.7720    9.8380   26.1270 C   0  0  0  0  0  0  0  0  0  0  0  0
   20.6720   10.1380   27.4720 C   0  0  0  0  0  0  0  0  0  0  0  0
   19.9230    9.4030   28.3120 F   0  0  0  0  0  0  0  0  0  0  0  0
   21.3500   11.2370   27.9480 C   0  0  0  0  0  0  0  0  0  0  0  0
   22.1060   12.0280   27.1690 N   0  0  0  0  0  0  0  0  0  0  0  0
  8  9  1  0
  9 10  1  0
 10 11  1  0
 10 12  2  0
 12 13  1  0
 13 14  1  0
 13  1  1  0
  1  2  2  0
  2  3  1  0
  3 21  1  0
 21 22  1  0
 22 23  2  0
 22 25  1  0
 25 26  2  0
 26 27  1  0
 27 28  2  0
 28 29  1  0
 28 30  1  0
 30 31  2  0
  3  4  2  0
  4  5  1  0
  5  6  2  0
  6  7  1  0
 13 15  1  0
 15 16  1  0
 16 17  2  0
 16 18  2  0
 16  9  1  0
  6  1  1  0
 31 25  1  0
 11 19  1  0
 11 20  1  0
 21 24  1  0
M  END
> <meeko>
{"is_sidechain": false}

> <source_group>
BACE1-457

> <source_system>
BACE1_verubecestat

> <source_run>
alternate_457_seed1103_ex32

> <source_seed>
1103

> <vina_pose_rank>
4

> <vina_affinity_kcal_mol>
-7.8609999999999998

> <vina_rmsd_to_crystal_angstrom>
7.1021999999999998

> <minimizedAffinity>
-7.65664

> <CNNscore>
0.0375812501

> <CNNaffinity>
4.1478652954

> <CNN_VS>
0.1558819562

> <CNNaffinity_variance>
1.3664919138

$$$$
BACE1_verubecestat__alternate_457_seed1103_ex32__pose05


 31 33  0  0  0  0  0  0  0  0999 V2000
   23.6640   12.1080   20.1470 C   0  0  0  0  0  0  0  0  0  0  0  0
   23.2270   10.8230   19.8260 C   0  0  0  0  0  0  0  0  0  0  0  0
   22.6240    9.9990   20.7480 C   0  0  0  0  0  0  0  0  0  0  0  0
   22.4480   10.4210   22.0600 C   0  0  0  0  0  0  0  0  0  0  0  0
   22.8730   11.6940   22.3960 C   0  0  0  0  0  0  0  0  0  0  0  0
   23.4470   12.5220   21.4520 C   0  0  0  0  0  0  0  0  0  0  0  0
   23.8290   13.7780   21.8010 F   0  0  0  0  0  0  0  0  0  0  0  0
   21.0570   12.7620   16.2840 C   0  0  0  0  0  0  0  0  0  0  0  0
   22.2200   12.9360   17.1770 N   0  0  0  0  0  0  0  0  0  0  0  0
   23.4510   12.2720   16.9780 C   0  0  0  0  0  0  0  0  0  0  0  0
   23.5210   11.5740   15.8020 N   0  0  0  0  0  0  0  0  0  0  0  0
   24.4440   12.3280   17.8100 N   0  0  0  0  0  0  0  0  0  0  0  0
   24.3250   12.9960   19.1050 C   0  0  0  0  0  0  0  0  0  0  0  0
   25.7840   13.2290   19.5060 C   0  0  0  0  0  0  0  0  0  0  0  0
   23.6910   14.3580   18.9290 C   0  0  0  0  0  0  0  0  0  0  0  0
   22.0280   14.2030   18.3270 S   0  0  0  0  0  0  0  0  0  0  0  0
   21.7420   15.4170   17.5840 O   0  0  0  0  0  0  0  0  0  0  0  0
   21.1600   13.6410   19.3140 O   0  0  0  0  0  0  0  0  0  0  0  0
   24.3390   11.0780   15.5720 H   0  0  0  0  0  0  0  0  0  0  0  0
   22.7530   11.5690   15.1850 H   0  0  0  0  0  0  0  0  0  0  0  0
   22.2340    8.7310   20.2970 N   0  0  0  0  0  0  0  0  0  0  0  0
   21.4620    8.4150   19.1930 C   0  0  0  0  0  0  0  0  0  0  0  0
   20.8750    9.2250   18.4880 O   0  0  0  0  0  0  0  0  0  0  0  0
   22.5500    7.9680   20.8330 H   0  0  0  0  0  0  0  0  0  0  0  0
   21.3990    6.9720   18.8570 C   0  0  0  0  0  0  0  0  0  0  0  0
   22.5680    6.2590   18.6510 C   0  0  0  0  0  0  0  0  0  0  0  0
   22.4500    4.9160   18.3380 C   0  0  0  0  0  0  0  0  0  0  0  0
   21.1990    4.3380   18.2460 C   0  0  0  0  0  0  0  0  0  0  0  0
   21.0360    3.0400   17.9360 F   0  0  0  0  0  0  0  0  0  0  0  0
   20.0950    5.1310   18.4630 C   0  0  0  0  0  0  0  0  0  0  0  0
   20.1770    6.4380   18.7620 N   0  0  0  0  0  0  0  0  0  0  0  0
  8  9  1  0
  9 10  1  0
 10 11  1  0
 10 12  2  0
 12 13  1  0
 13 14  1  0
 13  1  1  0
  1  2  2  0
  2  3  1  0
  3 21  1  0
 21 22  1  0
 22 23  2  0
 22 25  1  0
 25 26  2  0
 26 27  1  0
 27 28  2  0
 28 29  1  0
 28 30  1  0
 30 31  2  0
  3  4  2  0
  4  5  1  0
  5  6  2  0
  6  7  1  0
 13 15  1  0
 15 16  1  0
 16 17  2  0
 16 18  2  0
 16  9  1  0
  6  1  1  0
 31 25  1  0
 11 19  1  0
 11 20  1  0
 21 24  1  0
M  END
> <meeko>
{"is_sidechain": false}

> <source_group>
BACE1-457

> <source_system>
BACE1_verubecestat

> <source_run>
alternate_457_seed1103_ex32

> <source_seed>
1103

> <vina_pose_rank>
5

> <vina_affinity_kcal_mol>
-7.6289999999999996

> <vina_rmsd_to_crystal_angstrom>
7.2770000000000001

> <minimizedAffinity>
-7.57432

> <CNNscore>
0.1851068884

> <CNNaffinity>
4.9361834526

> <CNN_VS>
0.9137215614

> <CNNaffinity_variance>
0.5246060491

$$$$
BACE1_verubecestat__alternate_457_seed1103_ex32__pose06


 31 33  0  0  0  0  0  0  0  0999 V2000
   24.9330   11.5540   20.9460 C   0  0  0  0  0  0  0  0  0  0  0  0
   24.4820   10.2790   20.6080 C   0  0  0  0  0  0  0  0  0  0  0  0
   23.1810    9.8790   20.8140 C   0  0  0  0  0  0  0  0  0  0  0  0
   22.2640   10.7440   21.3980 C   0  0  0  0  0  0  0  0  0  0  0  0
   22.6930   12.0150   21.7370 C   0  0  0  0  0  0  0  0  0  0  0  0
   23.9930   12.4120   21.4950 C   0  0  0  0  0  0  0  0  0  0  0  0
   24.3820   13.6750   21.8110 F   0  0  0  0  0  0  0  0  0  0  0  0
   26.4350   10.7200   16.5650 C   0  0  0  0  0  0  0  0  0  0  0  0
   26.5240   11.2050   17.9560 N   0  0  0  0  0  0  0  0  0  0  0  0
   27.1970   10.4970   18.9770 C   0  0  0  0  0  0  0  0  0  0  0  0
   27.8870    9.4010   18.5310 N   0  0  0  0  0  0  0  0  0  0  0  0
   27.1930   10.8520   20.2250 N   0  0  0  0  0  0  0  0  0  0  0  0
   26.3770   11.9660   20.7030 C   0  0  0  0  0  0  0  0  0  0  0  0
   27.0250   12.3130   22.0470 C   0  0  0  0  0  0  0  0  0  0  0  0
   26.5570   13.1670   19.8010 C   0  0  0  0  0  0  0  0  0  0  0  0
   25.9600   12.8180   18.1660 S   0  0  0  0  0  0  0  0  0  0  0  0
   26.7200   13.6600   17.2600 O   0  0  0  0  0  0  0  0  0  0  0  0
   24.5370   12.6880   18.1400 O   0  0  0  0  0  0  0  0  0  0  0  0
   28.3890    8.8430   19.1680 H   0  0  0  0  0  0  0  0  0  0  0  0
   27.8820    9.1720   17.5730 H   0  0  0  0  0  0  0  0  0  0  0  0
   22.8590    8.5710   20.4310 N   0  0  0  0  0  0  0  0  0  0  0  0
   21.9450    8.1570   19.4780 C   0  0  0  0  0  0  0  0  0  0  0  0
   21.1600    8.8890   18.8900 O   0  0  0  0  0  0  0  0  0  0  0  0
   23.3440    7.8540   20.9010 H   0  0  0  0  0  0  0  0  0  0  0  0
   21.9820    6.7110   19.1510 C   0  0  0  0  0  0  0  0  0  0  0  0
   22.7570    6.2600   18.0970 C   0  0  0  0  0  0  0  0  0  0  0  0
   22.7530    4.9010   17.8350 C   0  0  0  0  0  0  0  0  0  0  0  0
   21.9950    4.0520   18.6180 C   0  0  0  0  0  0  0  0  0  0  0  0
   21.9520    2.7270   18.3970 F   0  0  0  0  0  0  0  0  0  0  0  0
   21.2520    4.5960   19.6420 C   0  0  0  0  0  0  0  0  0  0  0  0
   21.2320    5.9110   19.9160 N   0  0  0  0  0  0  0  0  0  0  0  0
  8  9  1  0
  9 10  1  0
 10 11  1  0
 10 12  2  0
 12 13  1  0
 13 14  1  0
 13  1  1  0
  1  2  2  0
  2  3  1  0
  3 21  1  0
 21 22  1  0
 22 23  2  0
 22 25  1  0
 25 26  2  0
 26 27  1  0
 27 28  2  0
 28 29  1  0
 28 30  1  0
 30 31  2  0
  3  4  2  0
  4  5  1  0
  5  6  2  0
  6  7  1  0
 13 15  1  0
 15 16  1  0
 16 17  2  0
 16 18  2  0
 16  9  1  0
  6  1  1  0
 31 25  1  0
 11 19  1  0
 11 20  1  0
 21 24  1  0
M  END
> <meeko>
{"is_sidechain": false}

> <source_group>
BACE1-457

> <source_system>
BACE1_verubecestat

> <source_run>
alternate_457_seed1103_ex32

> <source_seed>
1103

> <vina_pose_rank>
6

> <vina_affinity_kcal_mol>
-7.4080000000000004

> <vina_rmsd_to_crystal_angstrom>
7.1550000000000002

> <minimizedAffinity>
-7.32099

> <CNNscore>
0.1157969385

> <CNNaffinity>
4.6136765480

> <CNN_VS>
0.5342496037

> <CNNaffinity_variance>
0.9381821156

$$$$
BACE1_verubecestat__alternate_457_seed1103_ex32__pose07


 31 33  0  0  0  0  0  0  0  0999 V2000
   24.2020    6.9530   14.9390 C   0  0  0  0  0  0  0  0  0  0  0  0
   24.0070    7.9110   15.9330 C   0  0  0  0  0  0  0  0  0  0  0  0
   23.4170    7.6100   17.1400 C   0  0  0  0  0  0  0  0  0  0  0  0
   22.9680    6.3220   17.4020 C   0  0  0  0  0  0  0  0  0  0  0  0
   23.1570    5.3570   16.4280 C   0  0  0  0  0  0  0  0  0  0  0  0
   23.7800    5.6660   15.2350 C   0  0  0  0  0  0  0  0  0  0  0  0
   23.9800    4.6940   14.3070 F   0  0  0  0  0  0  0  0  0  0  0  0
   28.6980    8.2790   15.3570 C   0  0  0  0  0  0  0  0  0  0  0  0
   27.4440    7.9540   14.6500 N   0  0  0  0  0  0  0  0  0  0  0  0
   26.5610    8.9390   14.1550 C   0  0  0  0  0  0  0  0  0  0  0  0
   27.0430   10.2160   14.2530 N   0  0  0  0  0  0  0  0  0  0  0  0
   25.4050    8.6730   13.6300 N   0  0  0  0  0  0  0  0  0  0  0  0
   24.8600    7.3160   13.6170 C   0  0  0  0  0  0  0  0  0  0  0  0
   23.7820    7.3890   12.5320 C   0  0  0  0  0  0  0  0  0  0  0  0
   25.9100    6.3400   13.1350 C   0  0  0  0  0  0  0  0  0  0  0  0
   27.2800    6.2850   14.2610 S   0  0  0  0  0  0  0  0  0  0  0  0
   28.4450    5.9090   13.4790 O   0  0  0  0  0  0  0  0  0  0  0  0
   26.9180    5.6780   15.5040 O   0  0  0  0  0  0  0  0  0  0  0  0
   26.4990   10.9730   13.9340 H   0  0  0  0  0  0  0  0  0  0  0  0
   27.9330   10.3790   14.6410 H   0  0  0  0  0  0  0  0  0  0  0  0
   23.2770    8.6650   18.0510 N   0  0  0  0  0  0  0  0  0  0  0  0
   22.1170    9.3040   18.4510 C   0  0  0  0  0  0  0  0  0  0  0  0
   21.0100    9.1250   17.9620 O   0  0  0  0  0  0  0  0  0  0  0  0
   24.1110    8.9940   18.4580 H   0  0  0  0  0  0  0  0  0  0  0  0
   22.2720   10.2430   19.5890 C   0  0  0  0  0  0  0  0  0  0  0  0
   22.3400    9.7560   20.8830 C   0  0  0  0  0  0  0  0  0  0  0  0
   22.4830   10.6770   21.9060 C   0  0  0  0  0  0  0  0  0  0  0  0
   22.5540   12.0250   21.6130 C   0  0  0  0  0  0  0  0  0  0  0  0
   22.6830   12.9560   22.5730 F   0  0  0  0  0  0  0  0  0  0  0  0
   22.4710   12.4130   20.2940 C   0  0  0  0  0  0  0  0  0  0  0  0
   22.3270   11.5430   19.2810 N   0  0  0  0  0  0  0  0  0  0  0  0
  8  9  1  0
  9 10  1  0
 10 11  1  0
 10 12  2  0
 12 13  1  0
 13 14  1  0
 13  1  1  0
  1  2  2  0
  2  3  1  0
  3 21  1  0
 21 22  1  0
 22 23  2  0
 22 25  1  0
 25 26  2  0
 26 27  1  0
 27 28  2  0
 28 29  1  0
 28 30  1  0
 30 31  2  0
  3  4  2  0
  4  5  1  0
  5  6  2  0
  6  7  1  0
 13 15  1  0
 15 16  1  0
 16 17  2  0
 16 18  2  0
 16  9  1  0
  6  1  1  0
 31 25  1  0
 11 19  1  0
 11 20  1  0
 21 24  1  0
M  END
> <meeko>
{"is_sidechain": false}

> <source_group>
BACE1-457

> <source_system>
BACE1_verubecestat

> <source_run>
alternate_457_seed1103_ex32

> <source_seed>
1103

> <vina_pose_rank>
7

> <vina_affinity_kcal_mol>
-7.2229999999999999

> <vina_rmsd_to_crystal_angstrom>
9.0252999999999997

> <minimizedAffinity>
-7.16439

> <CNNscore>
0.1599476486

> <CNNaffinity>
4.9410181046

> <CNN_VS>
0.7903042436

> <CNNaffinity_variance>
0.3520824909

$$$$
BACE1_verubecestat__alternate_457_seed1103_ex32__pose08


 31 33  0  0  0  0  0  0  0  0999 V2000
   21.6140    8.1990   17.1750 C   0  0  0  0  0  0  0  0  0  0  0  0
   21.8310    8.8280   18.4000 C   0  0  0  0  0  0  0  0  0  0  0  0
   22.1200    8.1260   19.5480 C   0  0  0  0  0  0  0  0  0  0  0  0
   22.1850    6.7380   19.5260 C   0  0  0  0  0  0  0  0  0  0  0  0
   21.9760    6.0970   18.3180 C   0  0  0  0  0  0  0  0  0  0  0  0
   21.7180    6.8170   17.1680 C   0  0  0  0  0  0  0  0  0  0  0  0
   21.5450    6.1650   15.9890 F   0  0  0  0  0  0  0  0  0  0  0  0
   24.6780   11.6690   16.3270 C   0  0  0  0  0  0  0  0  0  0  0  0
   23.5090   10.8040   16.0730 N   0  0  0  0  0  0  0  0  0  0  0  0
   22.1800   11.2120   16.3260 C   0  0  0  0  0  0  0  0  0  0  0  0
   22.0610   12.5290   16.6810 N   0  0  0  0  0  0  0  0  0  0  0  0
   21.1520   10.4300   16.2110 N   0  0  0  0  0  0  0  0  0  0  0  0
   21.2990    9.0040   15.9240 C   0  0  0  0  0  0  0  0  0  0  0  0
   19.9080    8.6100   15.4200 C   0  0  0  0  0  0  0  0  0  0  0  0
   22.2600    8.8020   14.7740 C   0  0  0  0  0  0  0  0  0  0  0  0
   23.8870    9.3630   15.2100 S   0  0  0  0  0  0  0  0  0  0  0  0
   24.5340    9.7600   13.9730 O   0  0  0  0  0  0  0  0  0  0  0  0
   24.4880    8.5210   16.1970 O   0  0  0  0  0  0  0  0  0  0  0  0
   21.1740   12.9070   16.8770 H   0  0  0  0  0  0  0  0  0  0  0  0
   22.8630   13.0970   16.7400 H   0  0  0  0  0  0  0  0  0  0  0  0
   22.3140    8.8790   20.7130 N   0  0  0  0  0  0  0  0  0  0  0  0
   23.2710    9.8470   20.9590 C   0  0  0  0  0  0  0  0  0  0  0  0
   24.2080   10.1150   20.2180 O   0  0  0  0  0  0  0  0  0  0  0  0
   21.6880    8.6960   21.4510 H   0  0  0  0  0  0  0  0  0  0  0  0
   23.0860   10.6170   22.2130 C   0  0  0  0  0  0  0  0  0  0  0  0
   22.7390   11.9550   22.1580 C   0  0  0  0  0  0  0  0  0  0  0  0
   22.5810   12.6250   23.3580 C   0  0  0  0  0  0  0  0  0  0  0  0
   22.7670   11.9530   24.5510 C   0  0  0  0  0  0  0  0  0  0  0  0
   22.6340   12.5630   25.7410 F   0  0  0  0  0  0  0  0  0  0  0  0
   23.1180   10.6220   24.5030 C   0  0  0  0  0  0  0  0  0  0  0  0
   23.2830    9.9470   23.3540 N   0  0  0  0  0  0  0  0  0  0  0  0
  8  9  1  0
  9 10  1  0
 10 11  1  0
 10 12  2  0
 12 13  1  0
 13 14  1  0
 13  1  1  0
  1  2  2  0
  2  3  1  0
  3 21  1  0
 21 22  1  0
 22 23  2  0
 22 25  1  0
 25 26  2  0
 26 27  1  0
 27 28  2  0
 28 29  1  0
 28 30  1  0
 30 31  2  0
  3  4  2  0
  4  5  1  0
  5  6  2  0
  6  7  1  0
 13 15  1  0
 15 16  1  0
 16 17  2  0
 16 18  2  0
 16  9  1  0
  6  1  1  0
 31 25  1  0
 11 19  1  0
 11 20  1  0
 21 24  1  0
M  END
> <meeko>
{"is_sidechain": false}

> <source_group>
BACE1-457

> <source_system>
BACE1_verubecestat

> <source_run>
alternate_457_seed1103_ex32

> <source_seed>
1103

> <vina_pose_rank>
8

> <vina_affinity_kcal_mol>
-7.2149999999999999

> <vina_rmsd_to_crystal_angstrom>
6.9836

> <minimizedAffinity>
-7.14064

> <CNNscore>
0.1275383532

> <CNNaffinity>
5.0153961182

> <CNN_VS>
0.6396553516

> <CNNaffinity_variance>
0.3638524115

$$$$
BACE1_verubecestat__alternate_457_seed1103_ex32__pose09


 31 33  0  0  0  0  0  0  0  0999 V2000
   22.7100    9.1220   17.4860 C   0  0  0  0  0  0  0  0  0  0  0  0
   22.6500    9.5240   18.8200 C   0  0  0  0  0  0  0  0  0  0  0  0
   23.7260   10.0880   19.4680 C   0  0  0  0  0  0  0  0  0  0  0  0
   24.9360   10.2570   18.8070 C   0  0  0  0  0  0  0  0  0  0  0  0
   25.0130    9.8670   17.4810 C   0  0  0  0  0  0  0  0  0  0  0  0
   23.9160    9.3320   16.8350 C   0  0  0  0  0  0  0  0  0  0  0  0
   24.0090    8.9840   15.5250 F   0  0  0  0  0  0  0  0  0  0  0  0
   22.6550    4.4170   17.6060 C   0  0  0  0  0  0  0  0  0  0  0  0
   22.1490    5.7690   17.2950 N   0  0  0  0  0  0  0  0  0  0  0  0
   22.2320    6.3450   16.0090 C   0  0  0  0  0  0  0  0  0  0  0  0
   22.6830    5.4860   15.0430 N   0  0  0  0  0  0  0  0  0  0  0  0
   21.8930    7.5690   15.7430 N   0  0  0  0  0  0  0  0  0  0  0  0
   21.5040    8.5040   16.7970 C   0  0  0  0  0  0  0  0  0  0  0  0
   20.7610    9.5990   16.0260 C   0  0  0  0  0  0  0  0  0  0  0  0
   20.4990    7.8550   17.7230 C   0  0  0  0  0  0  0  0  0  0  0  0
   21.2270    6.4730   18.5670 S   0  0  0  0  0  0  0  0  0  0  0  0
   20.1440    5.5560   18.8720 O   0  0  0  0  0  0  0  0  0  0  0  0
   22.2140    6.8930   19.5130 O   0  0  0  0  0  0  0  0  0  0  0  0
   22.7750    5.7950   14.1130 H   0  0  0  0  0  0  0  0  0  0  0  0
   22.9150    4.5580   15.2780 H   0  0  0  0  0  0  0  0  0  0  0  0
   23.5330   10.4450   20.8090 N   0  0  0  0  0  0  0  0  0  0  0  0
   22.8490   11.5360   21.3150 C   0  0  0  0  0  0  0  0  0  0  0  0
   22.3990   12.4570   20.6470 O   0  0  0  0  0  0  0  0  0  0  0  0
   23.9360    9.8430   21.4750 H   0  0  0  0  0  0  0  0  0  0  0  0
   22.6400   11.5260   22.7840 C   0  0  0  0  0  0  0  0  0  0  0  0
   22.6200   12.7180   23.4860 C   0  0  0  0  0  0  0  0  0  0  0  0
   22.4230   12.6500   24.8550 C   0  0  0  0  0  0  0  0  0  0  0  0
   22.2540   11.4230   25.4650 C   0  0  0  0  0  0  0  0  0  0  0  0
   22.0700   11.3070   26.7910 F   0  0  0  0  0  0  0  0  0  0  0  0
   22.2960   10.2920   24.6820 C   0  0  0  0  0  0  0  0  0  0  0  0
   22.4910   10.3260   23.3530 N   0  0  0  0  0  0  0  0  0  0  0  0
  8  9  1  0
  9 10  1  0
 10 11  1  0
 10 12  2  0
 12 13  1  0
 13 14  1  0
 13  1  1  0
  1  2  2  0
  2  3  1  0
  3 21  1  0
 21 22  1  0
 22 23  2  0
 22 25  1  0
 25 26  2  0
 26 27  1  0
 27 28  2  0
 28 29  1  0
 28 30  1  0
 30 31  2  0
  3  4  2  0
  4  5  1  0
  5  6  2  0
  6  7  1  0
 13 15  1  0
 15 16  1  0
 16 17  2  0
 16 18  2  0
 16  9  1  0
  6  1  1  0
 31 25  1  0
 11 19  1  0
 11 20  1  0
 21 24  1  0
M  END
> <meeko>
{"is_sidechain": false}

> <source_group>
BACE1-457

> <source_system>
BACE1_verubecestat

> <source_run>
alternate_457_seed1103_ex32

> <source_seed>
1103

> <vina_pose_rank>
9

> <vina_affinity_kcal_mol>
-7.1189999999999998

> <vina_rmsd_to_crystal_angstrom>
6.7999000000000001

> <minimizedAffinity>
-7.60643

> <CNNscore>
0.0838350505

> <CNNaffinity>
4.4146180153

> <CNN_VS>
0.3700997233

> <CNNaffinity_variance>
1.0561780930

$$$$
BACE1_verubecestat__alternate_457_seed1103_ex32__pose10


 31 33  0  0  0  0  0  0  0  0999 V2000
   23.2940    9.6070   17.1310 C   0  0  0  0  0  0  0  0  0  0  0  0
   24.3460    8.8990   16.5530 C   0  0  0  0  0  0  0  0  0  0  0  0
   25.6490    9.0410   16.9750 C   0  0  0  0  0  0  0  0  0  0  0  0
   25.9640    9.9280   17.9970 C   0  0  0  0  0  0  0  0  0  0  0  0
   24.9320   10.6360   18.5850 C   0  0  0  0  0  0  0  0  0  0  0  0
   23.6250   10.4600   18.1720 C   0  0  0  0  0  0  0  0  0  0  0  0
   22.6270   11.1450   18.7860 F   0  0  0  0  0  0  0  0  0  0  0  0
   21.8200    5.1370   17.1880 C   0  0  0  0  0  0  0  0  0  0  0  0
   21.7100    6.5960   16.9870 N   0  0  0  0  0  0  0  0  0  0  0  0
   21.7660    7.2040   15.7130 C   0  0  0  0  0  0  0  0  0  0  0  0
   21.7770    6.3130   14.6730 N   0  0  0  0  0  0  0  0  0  0  0  0
   21.7810    8.4870   15.5260 N   0  0  0  0  0  0  0  0  0  0  0  0
   21.8650    9.4250   16.6440 C   0  0  0  0  0  0  0  0  0  0  0  0
   21.3830   10.7410   16.0250 C   0  0  0  0  0  0  0  0  0  0  0  0
   20.8660    9.0480   17.7150 C   0  0  0  0  0  0  0  0  0  0  0  0
   21.2570    7.4600   18.4050 S   0  0  0  0  0  0  0  0  0  0  0  0
   20.0050    6.8920   18.8730 O   0  0  0  0  0  0  0  0  0  0  0  0
   22.4580    7.5020   19.1790 O   0  0  0  0  0  0  0  0  0  0  0  0
   21.8140    6.6410   13.7450 H   0  0  0  0  0  0  0  0  0  0  0  0
   21.7470    5.3460   14.8520 H   0  0  0  0  0  0  0  0  0  0  0  0
   26.6120    8.2730   16.3080 N   0  0  0  0  0  0  0  0  0  0  0  0
   27.5550    8.6930   15.3870 C   0  0  0  0  0  0  0  0  0  0  0  0
   27.6140    9.8150   14.9010 O   0  0  0  0  0  0  0  0  0  0  0  0
   26.6190    7.3120   16.5220 H   0  0  0  0  0  0  0  0  0  0  0  0
   28.5740    7.6810   15.0170 C   0  0  0  0  0  0  0  0  0  0  0  0
   28.9250    6.6920   15.9190 C   0  0  0  0  0  0  0  0  0  0  0  0
   29.8820    5.7740   15.5220 C   0  0  0  0  0  0  0  0  0  0  0  0
   30.4440    5.8680   14.2640 C   0  0  0  0  0  0  0  0  0  0  0  0
   31.3830    5.0060   13.8380 F   0  0  0  0  0  0  0  0  0  0  0  0
   30.0340    6.8910   13.4390 C   0  0  0  0  0  0  0  0  0  0  0  0
   29.1120    7.7990   13.7980 N   0  0  0  0  0  0  0  0  0  0  0  0
  8  9  1  0
  9 10  1  0
 10 11  1  0
 10 12  2  0
 12 13  1  0
 13 14  1  0
 13  1  1  0
  1  2  2  0
  2  3  1  0
  3 21  1  0
 21 22  1  0
 22 23  2  0
 22 25  1  0
 25 26  2  0
 26 27  1  0
 27 28  2  0
 28 29  1  0
 28 30  1  0
 30 31  2  0
  3  4  2  0
  4  5  1  0
  5  6  2  0
  6  7  1  0
 13 15  1  0
 15 16  1  0
 16 17  2  0
 16 18  2  0
 16  9  1  0
  6  1  1  0
 31 25  1  0
 11 19  1  0
 11 20  1  0
 21 24  1  0
M  END
> <meeko>
{"is_sidechain": false}

> <source_group>
BACE1-457

> <source_system>
BACE1_verubecestat

> <source_run>
alternate_457_seed1103_ex32

> <source_seed>
1103

> <vina_pose_rank>
10

> <vina_affinity_kcal_mol>
-7.1109999999999998

> <vina_rmsd_to_crystal_angstrom>
6.8167

> <minimizedAffinity>
-6.93363

> <CNNscore>
0.0913254768

> <CNNaffinity>
4.0657811165

> <CNN_VS>
0.3713093996

> <CNNaffinity_variance>
1.1402010918

$$$$
BACE1_verubecestat__alternate_457_seed1103_ex32__pose11


 31 33  0  0  0  0  0  0  0  0999 V2000
   22.4940    8.9890   14.3670 C   0  0  0  0  0  0  0  0  0  0  0  0
   23.7830    8.4590   14.3740 C   0  0  0  0  0  0  0  0  0  0  0  0
   24.9020    9.2380   14.1860 C   0  0  0  0  0  0  0  0  0  0  0  0
   24.7780   10.6030   13.9560 C   0  0  0  0  0  0  0  0  0  0  0  0
   23.5060   11.1480   13.9490 C   0  0  0  0  0  0  0  0  0  0  0  0
   22.3950   10.3580   14.1710 C   0  0  0  0  0  0  0  0  0  0  0  0
   21.1600   10.9230   14.1870 F   0  0  0  0  0  0  0  0  0  0  0  0
   22.6110    6.5450   18.3870 C   0  0  0  0  0  0  0  0  0  0  0  0
   22.0430    7.0260   17.1120 N   0  0  0  0  0  0  0  0  0  0  0  0
   22.0440    6.2550   15.9280 C   0  0  0  0  0  0  0  0  0  0  0  0
   22.4770    4.9680   16.1040 N   0  0  0  0  0  0  0  0  0  0  0  0
   21.6490    6.7010   14.7760 N   0  0  0  0  0  0  0  0  0  0  0  0
   21.2780    8.1020   14.5810 C   0  0  0  0  0  0  0  0  0  0  0  0
   20.4610    8.0630   13.2860 C   0  0  0  0  0  0  0  0  0  0  0  0
   20.3440    8.5500   15.6820 C   0  0  0  0  0  0  0  0  0  0  0  0
   21.1590    8.4960   17.2570 S   0  0  0  0  0  0  0  0  0  0  0  0
   20.1250    8.2790   18.2520 O   0  0  0  0  0  0  0  0  0  0  0  0
   22.1750    9.4970   17.3600 O   0  0  0  0  0  0  0  0  0  0  0  0
   22.5140    4.3520   15.3370 H   0  0  0  0  0  0  0  0  0  0  0  0
   22.7530    4.6590   16.9980 H   0  0  0  0  0  0  0  0  0  0  0  0
   26.1380    8.5800   14.2150 N   0  0  0  0  0  0  0  0  0  0  0  0
   26.8010    8.0470   15.3060 C   0  0  0  0  0  0  0  0  0  0  0  0
   26.4590    8.1850   16.4730 O   0  0  0  0  0  0  0  0  0  0  0  0
   26.5930    8.4830   13.3470 H   0  0  0  0  0  0  0  0  0  0  0  0
   27.9930    7.2250   14.9840 C   0  0  0  0  0  0  0  0  0  0  0  0
   28.6660    6.5600   15.9940 C   0  0  0  0  0  0  0  0  0  0  0  0
   29.7720    5.8090   15.6370 C   0  0  0  0  0  0  0  0  0  0  0  0
   30.1620    5.7440   14.3130 C   0  0  0  0  0  0  0  0  0  0  0  0
   31.2350    5.0350   13.9210 F   0  0  0  0  0  0  0  0  0  0  0  0
   29.4310    6.4460   13.3820 C   0  0  0  0  0  0  0  0  0  0  0  0
   28.3570    7.1870   13.6980 N   0  0  0  0  0  0  0  0  0  0  0  0
  8  9  1  0
  9 10  1  0
 10 11  1  0
 10 12  2  0
 12 13  1  0
 13 14  1  0
 13  1  1  0
  1  2  2  0
  2  3  1  0
  3 21  1  0
 21 22  1  0
 22 23  2  0
 22 25  1  0
 25 26  2  0
 26 27  1  0
 27 28  2  0
 28 29  1  0
 28 30  1  0
 30 31  2  0
  3  4  2  0
  4  5  1  0
  5  6  2  0
  6  7  1  0
 13 15  1  0
 15 16  1  0
 16 17  2  0
 16 18  2  0
 16  9  1  0
  6  1  1  0
 31 25  1  0
 11 19  1  0
 11 20  1  0
 21 24  1  0
M  END
> <meeko>
{"is_sidechain": false}

> <source_group>
BACE1-457

> <source_system>
BACE1_verubecestat

> <source_run>
alternate_457_seed1103_ex32

> <source_seed>
1103

> <vina_pose_rank>
11

> <vina_affinity_kcal_mol>
-7.0750000000000002

> <vina_rmsd_to_crystal_angstrom>
7.4241999999999999

> <minimizedAffinity>
-6.88307

> <CNNscore>
0.2234199047

> <CNNaffinity>
4.5542759895

> <CNN_VS>
1.0175158978

> <CNNaffinity_variance>
0.5589141846

$$$$
BACE1_verubecestat__alternate_457_seed1103_ex32__pose12


 31 33  0  0  0  0  0  0  0  0999 V2000
   24.0730    6.5920   14.8140 C   0  0  0  0  0  0  0  0  0  0  0  0
   25.4530    6.7460   14.9420 C   0  0  0  0  0  0  0  0  0  0  0  0
   26.3260    6.4340   13.9240 C   0  0  0  0  0  0  0  0  0  0  0  0
   25.8520    5.9250   12.7220 C   0  0  0  0  0  0  0  0  0  0  0  0
   24.4850    5.7680   12.5760 C   0  0  0  0  0  0  0  0  0  0  0  0
   23.6180    6.1160   13.5930 C   0  0  0  0  0  0  0  0  0  0  0  0
   22.2790    5.9800   13.4140 F   0  0  0  0  0  0  0  0  0  0  0  0
   23.8970   11.1990   15.7600 C   0  0  0  0  0  0  0  0  0  0  0  0
   23.5390    9.7730   15.9020 N   0  0  0  0  0  0  0  0  0  0  0  0
   24.0340    8.9550   16.9420 C   0  0  0  0  0  0  0  0  0  0  0  0
   24.7500    9.6350   17.8910 N   0  0  0  0  0  0  0  0  0  0  0  0
   23.8180    7.6790   17.0210 N   0  0  0  0  0  0  0  0  0  0  0  0
   23.1340    6.9480   15.9550 C   0  0  0  0  0  0  0  0  0  0  0  0
   22.6920    5.6590   16.6530 C   0  0  0  0  0  0  0  0  0  0  0  0
   21.8770    7.6840   15.5450 C   0  0  0  0  0  0  0  0  0  0  0  0
   22.2760    9.2660   14.8480 S   0  0  0  0  0  0  0  0  0  0  0  0
   21.1350   10.1280   15.0970 O   0  0  0  0  0  0  0  0  0  0  0  0
   22.9220    9.1350   13.5790 O   0  0  0  0  0  0  0  0  0  0  0  0
   25.1360    9.1510   18.6560 H   0  0  0  0  0  0  0  0  0  0  0  0
   24.8790   10.6080   17.8070 H   0  0  0  0  0  0  0  0  0  0  0  0
   27.6880    6.6330   14.1830 N   0  0  0  0  0  0  0  0  0  0  0  0
   28.5680    5.7900   14.8390 C   0  0  0  0  0  0  0  0  0  0  0  0
   28.2540    4.7620   15.4260 O   0  0  0  0  0  0  0  0  0  0  0  0
   28.0680    7.4800   13.8570 H   0  0  0  0  0  0  0  0  0  0  0  0
   29.9950    6.1860   14.7690 C   0  0  0  0  0  0  0  0  0  0  0  0
   30.7810    5.7560   13.7140 C   0  0  0  0  0  0  0  0  0  0  0  0
   32.1060    6.1530   13.7000 C   0  0  0  0  0  0  0  0  0  0  0  0
   32.5950    6.9530   14.7150 C   0  0  0  0  0  0  0  0  0  0  0  0
   33.8770    7.3570   14.7490 F   0  0  0  0  0  0  0  0  0  0  0  0
   31.7370    7.3260   15.7250 C   0  0  0  0  0  0  0  0  0  0  0  0
   30.4480    6.9510   15.7690 N   0  0  0  0  0  0  0  0  0  0  0  0
  8  9  1  0
  9 10  1  0
 10 11  1  0
 10 12  2  0
 12 13  1  0
 13 14  1  0
 13  1  1  0
  1  2  2  0
  2  3  1  0
  3 21  1  0
 21 22  1  0
 22 23  2  0
 22 25  1  0
 25 26  2  0
 26 27  1  0
 27 28  2  0
 28 29  1  0
 28 30  1  0
 30 31  2  0
  3  4  2  0
  4  5  1  0
  5  6  2  0
  6  7  1  0
 13 15  1  0
 15 16  1  0
 16 17  2  0
 16 18  2  0
 16  9  1  0
  6  1  1  0
 31 25  1  0
 11 19  1  0
 11 20  1  0
 21 24  1  0
M  END
> <meeko>
{"is_sidechain": false}

> <source_group>
BACE1-457

> <source_system>
BACE1_verubecestat

> <source_run>
alternate_457_seed1103_ex32

> <source_seed>
1103

> <vina_pose_rank>
12

> <vina_affinity_kcal_mol>
-7.056

> <vina_rmsd_to_crystal_angstrom>
8.0152000000000001

> <minimizedAffinity>
-7.03982

> <CNNscore>
0.1517829448

> <CNNaffinity>
4.6955165863

> <CNN_VS>
0.7126993537

> <CNNaffinity_variance>
0.6989756227

$$$$
BACE1_verubecestat__alternate_457_seed1103_ex32__pose13


 31 33  0  0  0  0  0  0  0  0999 V2000
   22.9300   11.7750   19.8100 C   0  0  0  0  0  0  0  0  0  0  0  0
   22.8910   10.3980   19.5910 C   0  0  0  0  0  0  0  0  0  0  0  0
   22.0980    9.8300   18.6200 C   0  0  0  0  0  0  0  0  0  0  0  0
   21.2780   10.6230   17.8280 C   0  0  0  0  0  0  0  0  0  0  0  0
   21.3070   11.9920   18.0290 C   0  0  0  0  0  0  0  0  0  0  0  0
   22.1320   12.5510   18.9850 C   0  0  0  0  0  0  0  0  0  0  0  0
   22.1630   13.9000   19.1420 F   0  0  0  0  0  0  0  0  0  0  0  0
   27.5290   11.4970   18.8500 C   0  0  0  0  0  0  0  0  0  0  0  0
   26.3290   11.8690   19.6240 N   0  0  0  0  0  0  0  0  0  0  0  0
   25.9010   11.1610   20.7690 C   0  0  0  0  0  0  0  0  0  0  0  0
   26.7780   10.1960   21.1860 N   0  0  0  0  0  0  0  0  0  0  0  0
   24.7920   11.4070   21.3970 N   0  0  0  0  0  0  0  0  0  0  0  0
   23.8200   12.3730   20.8890 C   0  0  0  0  0  0  0  0  0  0  0  0
   22.9640   12.6790   22.1210 C   0  0  0  0  0  0  0  0  0  0  0  0
   24.5170   13.6580   20.5040 C   0  0  0  0  0  0  0  0  0  0  0  0
   25.6470   13.3810   19.1630 S   0  0  0  0  0  0  0  0  0  0  0  0
   26.6930   14.3810   19.2890 O   0  0  0  0  0  0  0  0  0  0  0  0
   24.9580   13.0880   17.9450 O   0  0  0  0  0  0  0  0  0  0  0  0
   26.5680    9.6490   21.9770 H   0  0  0  0  0  0  0  0  0  0  0  0
   27.6190   10.0500   20.6950 H   0  0  0  0  0  0  0  0  0  0  0  0
   22.1500    8.4340   18.5050 N   0  0  0  0  0  0  0  0  0  0  0  0
   21.5960    7.4840   19.3450 C   0  0  0  0  0  0  0  0  0  0  0  0
   21.0660    7.7200   20.4230 O   0  0  0  0  0  0  0  0  0  0  0  0
   22.6420    8.0860   17.7270 H   0  0  0  0  0  0  0  0  0  0  0  0
   21.6420    6.0900   18.8410 C   0  0  0  0  0  0  0  0  0  0  0  0
   22.1770    5.8240   17.5920 C   0  0  0  0  0  0  0  0  0  0  0  0
   22.1930    4.5060   17.1720 C   0  0  0  0  0  0  0  0  0  0  0  0
   21.6900    3.5150   17.9930 C   0  0  0  0  0  0  0  0  0  0  0  0
   21.6760    2.2230   17.6230 F   0  0  0  0  0  0  0  0  0  0  0  0
   21.1730    3.8800   19.2150 C   0  0  0  0  0  0  0  0  0  0  0  0
   21.1390    5.1510   19.6490 N   0  0  0  0  0  0  0  0  0  0  0  0
  8  9  1  0
  9 10  1  0
 10 11  1  0
 10 12  2  0
 12 13  1  0
 13 14  1  0
 13  1  1  0
  1  2  2  0
  2  3  1  0
  3 21  1  0
 21 22  1  0
 22 23  2  0
 22 25  1  0
 25 26  2  0
 26 27  1  0
 27 28  2  0
 28 29  1  0
 28 30  1  0
 30 31  2  0
  3  4  2  0
  4  5  1  0
  5  6  2  0
  6  7  1  0
 13 15  1  0
 15 16  1  0
 16 17  2  0
 16 18  2  0
 16  9  1  0
  6  1  1  0
 31 25  1  0
 11 19  1  0
 11 20  1  0
 21 24  1  0
M  END
> <meeko>
{"is_sidechain": false}

> <source_group>
BACE1-457

> <source_system>
BACE1_verubecestat

> <source_run>
alternate_457_seed1103_ex32

> <source_seed>
1103

> <vina_pose_rank>
13

> <vina_affinity_kcal_mol>
-7.0519999999999996

> <vina_rmsd_to_crystal_angstrom>
6.8897000000000004

> <minimizedAffinity>
-7.09377

> <CNNscore>
0.1447972357

> <CNNaffinity>
5.2595009804

> <CNN_VS>
0.7615612149

> <CNNaffinity_variance>
0.5964905620

$$$$
BACE1_verubecestat__alternate_457_seed1103_ex32__pose14


 31 33  0  0  0  0  0  0  0  0999 V2000
   24.2150   11.9000   20.4290 C   0  0  0  0  0  0  0  0  0  0  0  0
   23.8300   10.5970   20.1190 C   0  0  0  0  0  0  0  0  0  0  0  0
   22.9610    9.8780   20.9080 C   0  0  0  0  0  0  0  0  0  0  0  0
   22.4470   10.4320   22.0740 C   0  0  0  0  0  0  0  0  0  0  0  0
   22.8160   11.7260   22.3960 C   0  0  0  0  0  0  0  0  0  0  0  0
   23.6630   12.4470   21.5770 C   0  0  0  0  0  0  0  0  0  0  0  0
   23.9860   13.7260   21.9010 F   0  0  0  0  0  0  0  0  0  0  0  0
   28.6070   12.1230   22.1040 C   0  0  0  0  0  0  0  0  0  0  0  0
   27.5140   12.3500   21.1380 N   0  0  0  0  0  0  0  0  0  0  0  0
   26.8480   13.5890   21.0060 C   0  0  0  0  0  0  0  0  0  0  0  0
   27.4040   14.6000   21.7440 N   0  0  0  0  0  0  0  0  0  0  0  0
   25.8160   13.7760   20.2420 N   0  0  0  0  0  0  0  0  0  0  0  0
   25.1740   12.6700   19.5340 C   0  0  0  0  0  0  0  0  0  0  0  0
   24.3690   13.3810   18.4430 C   0  0  0  0  0  0  0  0  0  0  0  0
   26.2170   11.8250   18.8370 C   0  0  0  0  0  0  0  0  0  0  0  0
   27.2980   11.0600   20.0180 S   0  0  0  0  0  0  0  0  0  0  0  0
   28.5690   10.8570   19.3460 O   0  0  0  0  0  0  0  0  0  0  0  0
   26.6220   10.0570   20.7800 O   0  0  0  0  0  0  0  0  0  0  0  0
   27.0100   15.5020   21.7180 H   0  0  0  0  0  0  0  0  0  0  0  0
   28.1980   14.4250   22.2990 H   0  0  0  0  0  0  0  0  0  0  0  0
   22.6580    8.5770   20.4850 N   0  0  0  0  0  0  0  0  0  0  0  0
   21.8120    8.1830   19.4640 C   0  0  0  0  0  0  0  0  0  0  0  0
   21.0740    8.9290   18.8340 O   0  0  0  0  0  0  0  0  0  0  0  0
   23.1050    7.8510   20.9770 H   0  0  0  0  0  0  0  0  0  0  0  0
   21.8630    6.7410   19.1200 C   0  0  0  0  0  0  0  0  0  0  0  0
   22.6330    6.3130   18.0530 C   0  0  0  0  0  0  0  0  0  0  0  0
   22.6430    4.9570   17.7750 C   0  0  0  0  0  0  0  0  0  0  0  0
   21.9030    4.0900   18.5550 C   0  0  0  0  0  0  0  0  0  0  0  0
   21.8740    2.7670   18.3170 F   0  0  0  0  0  0  0  0  0  0  0  0
   21.1630    4.6120   19.5910 C   0  0  0  0  0  0  0  0  0  0  0  0
   21.1290    5.9240   19.8820 N   0  0  0  0  0  0  0  0  0  0  0  0
  8  9  1  0
  9 10  1  0
 10 11  1  0
 10 12  2  0
 12 13  1  0
 13 14  1  0
 13  1  1  0
  1  2  2  0
  2  3  1  0
  3 21  1  0
 21 22  1  0
 22 23  2  0
 22 25  1  0
 25 26  2  0
 26 27  1  0
 27 28  2  0
 28 29  1  0
 28 30  1  0
 30 31  2  0
  3  4  2  0
  4  5  1  0
  5  6  2  0
  6  7  1  0
 13 15  1  0
 15 16  1  0
 16 17  2  0
 16 18  2  0
 16  9  1  0
  6  1  1  0
 31 25  1  0
 11 19  1  0
 11 20  1  0
 21 24  1  0
M  END
> <meeko>
{"is_sidechain": false}

> <source_group>
BACE1-457

> <source_system>
BACE1_verubecestat

> <source_run>
alternate_457_seed1103_ex32

> <source_seed>
1103

> <vina_pose_rank>
14

> <vina_affinity_kcal_mol>
-6.9470000000000001

> <vina_rmsd_to_crystal_angstrom>
7.0114000000000001

> <minimizedAffinity>
-7.39753

> <CNNscore>
0.0781543180

> <CNNaffinity>
4.2578368187

> <CNN_VS>
0.3327683210

> <CNNaffinity_variance>
1.3237177134

$$$$
BACE1_verubecestat__alternate_457_seed1103_ex32__pose15


 31 33  0  0  0  0  0  0  0  0999 V2000
   25.4090   12.8300   22.6330 C   0  0  0  0  0  0  0  0  0  0  0  0
   24.6970   11.8690   21.9160 C   0  0  0  0  0  0  0  0  0  0  0  0
   23.3470   11.6690   22.0920 C   0  0  0  0  0  0  0  0  0  0  0  0
   22.6410   12.4200   23.0240 C   0  0  0  0  0  0  0  0  0  0  0  0
   23.3300   13.3810   23.7420 C   0  0  0  0  0  0  0  0  0  0  0  0
   24.6780   13.5920   23.5320 C   0  0  0  0  0  0  0  0  0  0  0  0
   25.3250   14.5610   24.2280 F   0  0  0  0  0  0  0  0  0  0  0  0
   26.5950   13.4830   18.1250 C   0  0  0  0  0  0  0  0  0  0  0  0
   26.8170   13.3700   19.5800 N   0  0  0  0  0  0  0  0  0  0  0  0
   27.3500   12.2120   20.1890 C   0  0  0  0  0  0  0  0  0  0  0  0
   27.7820   11.2650   19.3000 N   0  0  0  0  0  0  0  0  0  0  0  0
   27.4510   12.0540   21.4730 N   0  0  0  0  0  0  0  0  0  0  0  0
   26.9000   13.0290   22.4130 C   0  0  0  0  0  0  0  0  0  0  0  0
   27.6390   12.7050   23.7150 C   0  0  0  0  0  0  0  0  0  0  0  0
   27.3080   14.4280   22.0080 C   0  0  0  0  0  0  0  0  0  0  0  0
   26.6120   14.8520   20.4310 S   0  0  0  0  0  0  0  0  0  0  0  0
   27.5100   15.8210   19.8290 O   0  0  0  0  0  0  0  0  0  0  0  0
   25.1930   15.0090   20.5060 O   0  0  0  0  0  0  0  0  0  0  0  0
   28.1700   10.4220   19.6290 H   0  0  0  0  0  0  0  0  0  0  0  0
   27.7060   11.4270   18.3320 H   0  0  0  0  0  0  0  0  0  0  0  0
   22.7530   10.6700   21.3110 N   0  0  0  0  0  0  0  0  0  0  0  0
   22.2820   10.7620   20.0130 C   0  0  0  0  0  0  0  0  0  0  0  0
   22.1930   11.7990   19.3690 O   0  0  0  0  0  0  0  0  0  0  0  0
   22.6590    9.7890   21.7400 H   0  0  0  0  0  0  0  0  0  0  0  0
   21.9010    9.4740   19.3850 C   0  0  0  0  0  0  0  0  0  0  0  0
   22.2570    8.2800   19.9860 C   0  0  0  0  0  0  0  0  0  0  0  0
   21.8760    7.1080   19.3550 C   0  0  0  0  0  0  0  0  0  0  0  0
   21.1650    7.1630   18.1720 C   0  0  0  0  0  0  0  0  0  0  0  0
   20.7830    6.0530   17.5190 F   0  0  0  0  0  0  0  0  0  0  0  0
   20.8630    8.4000   17.6490 C   0  0  0  0  0  0  0  0  0  0  0  0
   21.2230    9.5540   18.2350 N   0  0  0  0  0  0  0  0  0  0  0  0
  8  9  1  0
  9 10  1  0
 10 11  1  0
 10 12  2  0
 12 13  1  0
 13 14  1  0
 13  1  1  0
  1  2  2  0
  2  3  1  0
  3 21  1  0
 21 22  1  0
 22 23  2  0
 22 25  1  0
 25 26  2  0
 26 27  1  0
 27 28  2  0
 28 29  1  0
 28 30  1  0
 30 31  2  0
  3  4  2  0
  4  5  1  0
  5  6  2  0
  6  7  1  0
 13 15  1  0
 15 16  1  0
 16 17  2  0
 16 18  2  0
 16  9  1  0
  6  1  1  0
 31 25  1  0
 11 19  1  0
 11 20  1  0
 21 24  1  0
M  END
> <meeko>
{"is_sidechain": false}

> <source_group>
BACE1-457

> <source_system>
BACE1_verubecestat

> <source_run>
alternate_457_seed1103_ex32

> <source_seed>
1103

> <vina_pose_rank>
15

> <vina_affinity_kcal_mol>
-6.843

> <vina_rmsd_to_crystal_angstrom>
7.2172000000000001

> <minimizedAffinity>
-6.61068

> <CNNscore>
0.0435503125

> <CNNaffinity>
4.1756706238

> <CNN_VS>
0.1818517596

> <CNNaffinity_variance>
0.9610051513

$$$$
BACE1_verubecestat__alternate_457_seed1103_ex32__pose16


 31 33  0  0  0  0  0  0  0  0999 V2000
   25.6180   12.1970   21.1790 C   0  0  0  0  0  0  0  0  0  0  0  0
   24.9380   11.7470   22.3100 C   0  0  0  0  0  0  0  0  0  0  0  0
   23.5830   11.9230   22.4730 C   0  0  0  0  0  0  0  0  0  0  0  0
   22.8380   12.5870   21.5060 C   0  0  0  0  0  0  0  0  0  0  0  0
   23.4960   13.0370   20.3750 C   0  0  0  0  0  0  0  0  0  0  0  0
   24.8510   12.8250   20.2100 C   0  0  0  0  0  0  0  0  0  0  0  0
   25.4670   13.2510   19.0780 F   0  0  0  0  0  0  0  0  0  0  0  0
   28.2050   15.8970   22.5070 C   0  0  0  0  0  0  0  0  0  0  0  0
   27.9550   14.5290   22.0120 N   0  0  0  0  0  0  0  0  0  0  0  0
   28.0540   14.1730   20.6490 C   0  0  0  0  0  0  0  0  0  0  0  0
   28.5490   15.1680   19.8490 N   0  0  0  0  0  0  0  0  0  0  0  0
   27.7320   13.0060   20.1820 N   0  0  0  0  0  0  0  0  0  0  0  0
   27.1160   11.9840   21.0270 C   0  0  0  0  0  0  0  0  0  0  0  0
   27.3550   10.6950   20.2360 C   0  0  0  0  0  0  0  0  0  0  0  0
   27.8800   11.8550   22.3260 C   0  0  0  0  0  0  0  0  0  0  0  0
   27.7830   13.3590   23.2630 S   0  0  0  0  0  0  0  0  0  0  0  0
   28.9840   13.4190   24.0760 O   0  0  0  0  0  0  0  0  0  0  0  0
   26.4630   13.5850   23.7640 O   0  0  0  0  0  0  0  0  0  0  0  0
   28.6550   15.0150   18.8830 H   0  0  0  0  0  0  0  0  0  0  0  0
   28.7990   16.0360   20.2410 H   0  0  0  0  0  0  0  0  0  0  0  0
   23.0230   11.4260   23.6570 N   0  0  0  0  0  0  0  0  0  0  0  0
   22.8120   12.0930   24.8510 C   0  0  0  0  0  0  0  0  0  0  0  0
   23.2110   13.2220   25.1080 O   0  0  0  0  0  0  0  0  0  0  0  0
   22.7430   10.4830   23.6370 H   0  0  0  0  0  0  0  0  0  0  0  0
   22.0060   11.3560   25.8540 C   0  0  0  0  0  0  0  0  0  0  0  0
   21.9580   11.8010   27.1640 C   0  0  0  0  0  0  0  0  0  0  0  0
   21.1920   11.0740   28.0590 C   0  0  0  0  0  0  0  0  0  0  0  0
   20.5100    9.9530   27.6270 C   0  0  0  0  0  0  0  0  0  0  0  0
   19.7610    9.2100   28.4610 F   0  0  0  0  0  0  0  0  0  0  0  0
   20.6240    9.5860   26.3060 C   0  0  0  0  0  0  0  0  0  0  0  0
   21.3650   10.2680   25.4160 N   0  0  0  0  0  0  0  0  0  0  0  0
  8  9  1  0
  9 10  1  0
 10 11  1  0
 10 12  2  0
 12 13  1  0
 13 14  1  0
 13  1  1  0
  1  2  2  0
  2  3  1  0
  3 21  1  0
 21 22  1  0
 22 23  2  0
 22 25  1  0
 25 26  2  0
 26 27  1  0
 27 28  2  0
 28 29  1  0
 28 30  1  0
 30 31  2  0
  3  4  2  0
  4  5  1  0
  5  6  2  0
  6  7  1  0
 13 15  1  0
 15 16  1  0
 16 17  2  0
 16 18  2  0
 16  9  1  0
  6  1  1  0
 31 25  1  0
 11 19  1  0
 11 20  1  0
 21 24  1  0
M  END
> <meeko>
{"is_sidechain": false}

> <source_group>
BACE1-457

> <source_system>
BACE1_verubecestat

> <source_run>
alternate_457_seed1103_ex32

> <source_seed>
1103

> <vina_pose_rank>
16

> <vina_affinity_kcal_mol>
-6.819

> <vina_rmsd_to_crystal_angstrom>
7.3663999999999996

> <minimizedAffinity>
-7.22197

> <CNNscore>
0.0719645396

> <CNNaffinity>
4.8212685585

> <CNN_VS>
0.3469603658

> <CNNaffinity_variance>
0.6489653587

$$$$
BACE1_verubecestat__alternate_457_seed1103_ex32__pose17


 31 33  0  0  0  0  0  0  0  0999 V2000
   22.3650   11.0610   15.6910 C   0  0  0  0  0  0  0  0  0  0  0  0
   22.5190   10.9160   17.0690 C   0  0  0  0  0  0  0  0  0  0  0  0
   21.8270   11.6910   17.9730 C   0  0  0  0  0  0  0  0  0  0  0  0
   20.9540   12.6770   17.5300 C   0  0  0  0  0  0  0  0  0  0  0  0
   20.7870   12.8330   16.1660 C   0  0  0  0  0  0  0  0  0  0  0  0
   21.4630   12.0260   15.2720 C   0  0  0  0  0  0  0  0  0  0  0  0
   21.2580   12.1800   13.9380 F   0  0  0  0  0  0  0  0  0  0  0  0
   21.6390    6.4490   16.2880 C   0  0  0  0  0  0  0  0  0  0  0  0
   22.1970    7.6600   15.6540 N   0  0  0  0  0  0  0  0  0  0  0  0
   23.5210    8.1030   15.8700 C   0  0  0  0  0  0  0  0  0  0  0  0
   24.2870    7.2290   16.5950 N   0  0  0  0  0  0  0  0  0  0  0  0
   23.9930    9.2200   15.4090 N   0  0  0  0  0  0  0  0  0  0  0  0
   23.1410   10.1870   14.7190 C   0  0  0  0  0  0  0  0  0  0  0  0
   24.1510   11.0590   13.9680 C   0  0  0  0  0  0  0  0  0  0  0  0
   22.2990    9.4860   13.6760 C   0  0  0  0  0  0  0  0  0  0  0  0
   21.1810    8.3380   14.4400 S   0  0  0  0  0  0  0  0  0  0  0  0
   20.9260    7.2950   13.4620 O   0  0  0  0  0  0  0  0  0  0  0  0
   20.1620    9.0100   15.1830 O   0  0  0  0  0  0  0  0  0  0  0  0
   25.2250    7.4490   16.7980 H   0  0  0  0  0  0  0  0  0  0  0  0
   23.9000    6.3820   16.9130 H   0  0  0  0  0  0  0  0  0  0  0  0
   22.0760   11.4460   19.3300 N   0  0  0  0  0  0  0  0  0  0  0  0
   22.8870   12.1580   20.1950 C   0  0  0  0  0  0  0  0  0  0  0  0
   23.6390   13.0670   19.8680 O   0  0  0  0  0  0  0  0  0  0  0  0
   21.6130   10.6680   19.7170 H   0  0  0  0  0  0  0  0  0  0  0  0
   22.7790   11.7760   21.6240 C   0  0  0  0  0  0  0  0  0  0  0  0
   22.6620   10.4420   21.9760 C   0  0  0  0  0  0  0  0  0  0  0  0
   22.5610   10.1430   23.3230 C   0  0  0  0  0  0  0  0  0  0  0  0
   22.5840   11.1610   24.2570 C   0  0  0  0  0  0  0  0  0  0  0  0
   22.4800   10.9190   25.5750 F   0  0  0  0  0  0  0  0  0  0  0  0
   22.6980   12.4570   23.8090 C   0  0  0  0  0  0  0  0  0  0  0  0
   22.7910   12.7790   22.5080 N   0  0  0  0  0  0  0  0  0  0  0  0
  8  9  1  0
  9 10  1  0
 10 11  1  0
 10 12  2  0
 12 13  1  0
 13 14  1  0
 13  1  1  0
  1  2  2  0
  2  3  1  0
  3 21  1  0
 21 22  1  0
 22 23  2  0
 22 25  1  0
 25 26  2  0
 26 27  1  0
 27 28  2  0
 28 29  1  0
 28 30  1  0
 30 31  2  0
  3  4  2  0
  4  5  1  0
  5  6  2  0
  6  7  1  0
 13 15  1  0
 15 16  1  0
 16 17  2  0
 16 18  2  0
 16  9  1  0
  6  1  1  0
 31 25  1  0
 11 19  1  0
 11 20  1  0
 21 24  1  0
M  END
> <meeko>
{"is_sidechain": false}

> <source_group>
BACE1-457

> <source_system>
BACE1_verubecestat

> <source_run>
alternate_457_seed1103_ex32

> <source_seed>
1103

> <vina_pose_rank>
17

> <vina_affinity_kcal_mol>
-6.7789999999999999

> <vina_rmsd_to_crystal_angstrom>
7.4505999999999997

> <minimizedAffinity>
-6.59599

> <CNNscore>
0.2608190179

> <CNNaffinity>
4.6617646217

> <CNN_VS>
1.2158768177

> <CNNaffinity_variance>
0.4444174469

$$$$
BACE1_verubecestat__alternate_457_seed1103_ex32__pose18


 31 33  0  0  0  0  0  0  0  0999 V2000
   22.5310    8.4780   16.3820 C   0  0  0  0  0  0  0  0  0  0  0  0
   23.8000    8.0080   16.0440 C   0  0  0  0  0  0  0  0  0  0  0  0
   24.0780    6.6660   15.9180 C   0  0  0  0  0  0  0  0  0  0  0  0
   23.0900    5.7180   16.1490 C   0  0  0  0  0  0  0  0  0  0  0  0
   21.8240    6.1660   16.4820 C   0  0  0  0  0  0  0  0  0  0  0  0
   21.5510    7.5170   16.5740 C   0  0  0  0  0  0  0  0  0  0  0  0
   20.2930    7.9310   16.8740 F   0  0  0  0  0  0  0  0  0  0  0  0
   23.6370   10.9560   12.5370 C   0  0  0  0  0  0  0  0  0  0  0  0
   23.1160   10.7340   13.9000 N   0  0  0  0  0  0  0  0  0  0  0  0
   23.8460   11.0580   15.0660 C   0  0  0  0  0  0  0  0  0  0  0  0
   25.0110   11.7340   14.8210 N   0  0  0  0  0  0  0  0  0  0  0  0
   23.4510   10.7720   16.2680 N   0  0  0  0  0  0  0  0  0  0  0  0
   22.2540    9.9680   16.5120 C   0  0  0  0  0  0  0  0  0  0  0  0
   21.9200   10.2840   17.9720 C   0  0  0  0  0  0  0  0  0  0  0  0
   21.1040   10.4810   15.6730 C   0  0  0  0  0  0  0  0  0  0  0  0
   21.4540   10.2880   13.9440 S   0  0  0  0  0  0  0  0  0  0  0  0
   20.7110   11.3270   13.2530 O   0  0  0  0  0  0  0  0  0  0  0  0
   21.4590    8.9110   13.5570 O   0  0  0  0  0  0  0  0  0  0  0  0
   25.5900   12.0040   15.5710 H   0  0  0  0  0  0  0  0  0  0  0  0
   25.2700   11.9510   13.8960 H   0  0  0  0  0  0  0  0  0  0  0  0
   25.3940    6.3280   15.5760 N   0  0  0  0  0  0  0  0  0  0  0  0
   25.9110    6.0580   14.3220 C   0  0  0  0  0  0  0  0  0  0  0  0
   25.2510    5.9450   13.2970 O   0  0  0  0  0  0  0  0  0  0  0  0
   26.0320    6.2770   16.3240 H   0  0  0  0  0  0  0  0  0  0  0  0
   27.3880    5.9390   14.2580 C   0  0  0  0  0  0  0  0  0  0  0  0
   28.1030    5.5930   15.3910 C   0  0  0  0  0  0  0  0  0  0  0  0
   29.4790    5.4980   15.2760 C   0  0  0  0  0  0  0  0  0  0  0  0
   30.0850    5.7430   14.0590 C   0  0  0  0  0  0  0  0  0  0  0  0
   31.4180    5.6720   13.9000 F   0  0  0  0  0  0  0  0  0  0  0  0
   29.2890    6.0870   12.9890 C   0  0  0  0  0  0  0  0  0  0  0  0
   27.9530    6.1920   13.0730 N   0  0  0  0  0  0  0  0  0  0  0  0
  8  9  1  0
  9 10  1  0
 10 11  1  0
 10 12  2  0
 12 13  1  0
 13 14  1  0
 13  1  1  0
  1  2  2  0
  2  3  1  0
  3 21  1  0
 21 22  1  0
 22 23  2  0
 22 25  1  0
 25 26  2  0
 26 27  1  0
 27 28  2  0
 28 29  1  0
 28 30  1  0
 30 31  2  0
  3  4  2  0
  4  5  1  0
  5  6  2  0
  6  7  1  0
 13 15  1  0
 15 16  1  0
 16 17  2  0
 16 18  2  0
 16  9  1  0
  6  1  1  0
 31 25  1  0
 11 19  1  0
 11 20  1  0
 21 24  1  0
M  END
> <meeko>
{"is_sidechain": false}

> <source_group>
BACE1-457

> <source_system>
BACE1_verubecestat

> <source_run>
alternate_457_seed1103_ex32

> <source_seed>
1103

> <vina_pose_rank>
18

> <vina_affinity_kcal_mol>
-6.7640000000000002

> <vina_rmsd_to_crystal_angstrom>
8.1893999999999991

> <minimizedAffinity>
-6.52547

> <CNNscore>
0.1270033121

> <CNNaffinity>
4.4566988945

> <CNN_VS>
0.5660155416

> <CNNaffinity_variance>
0.5159391761

$$$$
BACE1_verubecestat__alternate_457_seed1103_ex32__pose19


 31 33  0  0  0  0  0  0  0  0999 V2000
   21.5470   11.6140   16.7810 C   0  0  0  0  0  0  0  0  0  0  0  0
   21.5210   10.2370   17.0000 C   0  0  0  0  0  0  0  0  0  0  0  0
   21.3260    9.3330   15.9810 C   0  0  0  0  0  0  0  0  0  0  0  0
   21.1230    9.7740   14.6790 C   0  0  0  0  0  0  0  0  0  0  0  0
   21.1500   11.1370   14.4430 C   0  0  0  0  0  0  0  0  0  0  0  0
   21.3780   12.0310   15.4700 C   0  0  0  0  0  0  0  0  0  0  0  0
   21.4290   13.3620   15.2060 F   0  0  0  0  0  0  0  0  0  0  0  0
   25.4680   10.7840   19.2490 C   0  0  0  0  0  0  0  0  0  0  0  0
   24.2310   11.4970   18.8730 N   0  0  0  0  0  0  0  0  0  0  0  0
   23.0210   11.3690   19.5900 C   0  0  0  0  0  0  0  0  0  0  0  0
   23.1340   10.6480   20.7490 N   0  0  0  0  0  0  0  0  0  0  0  0
   21.8990   11.9010   19.2130 N   0  0  0  0  0  0  0  0  0  0  0  0
   21.7680   12.5870   17.9290 C   0  0  0  0  0  0  0  0  0  0  0  0
   20.5010   13.4260   18.1160 C   0  0  0  0  0  0  0  0  0  0  0  0
   22.9150   13.5540   17.7370 C   0  0  0  0  0  0  0  0  0  0  0  0
   24.4600   12.6840   17.6480 S   0  0  0  0  0  0  0  0  0  0  0  0
   25.4800   13.6020   18.1240 O   0  0  0  0  0  0  0  0  0  0  0  0
   24.5660   11.9190   16.4450 O   0  0  0  0  0  0  0  0  0  0  0  0
   22.3440   10.5040   21.3180 H   0  0  0  0  0  0  0  0  0  0  0  0
   24.0060   10.2740   21.0120 H   0  0  0  0  0  0  0  0  0  0  0  0
   21.3190    7.9780   16.3360 N   0  0  0  0  0  0  0  0  0  0  0  0
   22.3720    7.0810   16.3170 C   0  0  0  0  0  0  0  0  0  0  0  0
   23.4810    7.3070   15.8510 O   0  0  0  0  0  0  0  0  0  0  0  0
   20.4540    7.6180   16.6390 H   0  0  0  0  0  0  0  0  0  0  0  0
   22.0990    5.7690   16.9530 C   0  0  0  0  0  0  0  0  0  0  0  0
   22.9580    4.7060   16.7400 C   0  0  0  0  0  0  0  0  0  0  0  0
   22.6540    3.5050   17.3560 C   0  0  0  0  0  0  0  0  0  0  0  0
   21.5290    3.4050   18.1520 C   0  0  0  0  0  0  0  0  0  0  0  0
   21.1890    2.2580   18.7620 F   0  0  0  0  0  0  0  0  0  0  0  0
   20.7320    4.5180   18.2980 C   0  0  0  0  0  0  0  0  0  0  0  0
   20.9980    5.6950   17.7080 N   0  0  0  0  0  0  0  0  0  0  0  0
  8  9  1  0
  9 10  1  0
 10 11  1  0
 10 12  2  0
 12 13  1  0
 13 14  1  0
 13  1  1  0
  1  2  2  0
  2  3  1  0
  3 21  1  0
 21 22  1  0
 22 23  2  0
 22 25  1  0
 25 26  2  0
 26 27  1  0
 27 28  2  0
 28 29  1  0
 28 30  1  0
 30 31  2  0
  3  4  2  0
  4  5  1  0
  5  6  2  0
  6  7  1  0
 13 15  1  0
 15 16  1  0
 16 17  2  0
 16 18  2  0
 16  9  1  0
  6  1  1  0
 31 25  1  0
 11 19  1  0
 11 20  1  0
 21 24  1  0
M  END
> <meeko>
{"is_sidechain": false}

> <source_group>
BACE1-457

> <source_system>
BACE1_verubecestat

> <source_run>
alternate_457_seed1103_ex32

> <source_seed>
1103

> <vina_pose_rank>
19

> <vina_affinity_kcal_mol>
-6.734

> <vina_rmsd_to_crystal_angstrom>
7.3851000000000004

> <minimizedAffinity>
-6.50885

> <CNNscore>
0.1443602294

> <CNNaffinity>
5.0489068031

> <CNN_VS>
0.7288613319

> <CNNaffinity_variance>
0.5235930085

$$$$
BACE1_verubecestat__alternate_457_seed1103_ex32__pose20


 31 33  0  0  0  0  0  0  0  0999 V2000
   24.0390   12.5230   21.6090 C   0  0  0  0  0  0  0  0  0  0  0  0
   25.1200   13.1840   22.1900 C   0  0  0  0  0  0  0  0  0  0  0  0
   25.4120   13.0810   23.5310 C   0  0  0  0  0  0  0  0  0  0  0  0
   24.6090   12.3180   24.3690 C   0  0  0  0  0  0  0  0  0  0  0  0
   23.5320   11.6530   23.8090 C   0  0  0  0  0  0  0  0  0  0  0  0
   23.2710   11.7390   22.4560 C   0  0  0  0  0  0  0  0  0  0  0  0
   22.2250   11.0530   21.9270 F   0  0  0  0  0  0  0  0  0  0  0  0
   27.8430   12.0830   18.8730 C   0  0  0  0  0  0  0  0  0  0  0  0
   26.4100   12.2640   19.1800 N   0  0  0  0  0  0  0  0  0  0  0  0
   25.7640   13.5190   19.1290 C   0  0  0  0  0  0  0  0  0  0  0  0
   26.5430   14.5250   18.6240 N   0  0  0  0  0  0  0  0  0  0  0  0
   24.5360   13.7140   19.4980 N   0  0  0  0  0  0  0  0  0  0  0  0
   23.7440   12.6550   20.1230 C   0  0  0  0  0  0  0  0  0  0  0  0
   22.3070   13.1510   19.9460 C   0  0  0  0  0  0  0  0  0  0  0  0
   23.8720   11.3740   19.3290 C   0  0  0  0  0  0  0  0  0  0  0  0
   25.5460   10.7850   19.3540 S   0  0  0  0  0  0  0  0  0  0  0  0
   25.7370   10.0280   18.1290 O   0  0  0  0  0  0  0  0  0  0  0  0
   25.9220   10.3200   20.6520 O   0  0  0  0  0  0  0  0  0  0  0  0
   26.1810   15.4370   18.5490 H   0  0  0  0  0  0  0  0  0  0  0  0
   27.4660   14.3360   18.3370 H   0  0  0  0  0  0  0  0  0  0  0  0
   26.5260   13.7970   23.9880 N   0  0  0  0  0  0  0  0  0  0  0  0
   27.8480   13.3930   24.0270 C   0  0  0  0  0  0  0  0  0  0  0  0
   28.2470   12.2620   23.7780 O   0  0  0  0  0  0  0  0  0  0  0  0
   26.3440   14.7050   24.3240 H   0  0  0  0  0  0  0  0  0  0  0  0
   28.8260   14.4540   24.3680 C   0  0  0  0  0  0  0  0  0  0  0  0
   28.5550   15.3380   25.3990 C   0  0  0  0  0  0  0  0  0  0  0  0
   29.5000   16.3100   25.6730 C   0  0  0  0  0  0  0  0  0  0  0  0
   30.6630   16.3680   24.9290 C   0  0  0  0  0  0  0  0  0  0  0  0
   31.6060   17.2990   25.1530 F   0  0  0  0  0  0  0  0  0  0  0  0
   30.8400   15.4480   23.9210 C   0  0  0  0  0  0  0  0  0  0  0  0
   29.9380   14.4970   23.6270 N   0  0  0  0  0  0  0  0  0  0  0  0
  8  9  1  0
  9 10  1  0
 10 11  1  0
 10 12  2  0
 12 13  1  0
 13 14  1  0
 13  1  1  0
  1  2  2  0
  2  3  1  0
  3 21  1  0
 21 22  1  0
 22 23  2  0
 22 25  1  0
 25 26  2  0
 26 27  1  0
 27 28  2  0
 28 29  1  0
 28 30  1  0
 30 31  2  0
  3  4  2  0
  4  5  1  0
  5  6  2  0
  6  7  1  0
 13 15  1  0
 15 16  1  0
 16 17  2  0
 16 18  2  0
 16  9  1  0
  6  1  1  0
 31 25  1  0
 11 19  1  0
 11 20  1  0
 21 24  1  0
M  END
> <meeko>
{"is_sidechain": false}

> <source_group>
BACE1-457

> <source_system>
BACE1_verubecestat

> <source_run>
alternate_457_seed1103_ex32

> <source_seed>
1103

> <vina_pose_rank>
20

> <vina_affinity_kcal_mol>
-6.6719999999999997

> <vina_rmsd_to_crystal_angstrom>
5.8795000000000002

> <minimizedAffinity>
-6.59063

> <CNNscore>
0.0264075901

> <CNNaffinity>
3.5846202374

> <CNN_VS>
0.0946611837

> <CNNaffinity_variance>
0.9443805814

$$$$
