BACE1_verubecestat__alternate_476_seed3301_ex32__pose01
     RDKit          3D

 45 47  0  0  0  0  0  0  0  0999 V2000
   27.6030   13.7850   24.5200 C   0  0  0  0  0  0  0  0  0  0  0  0
   26.9310   13.8930   23.2100 N   0  0  0  0  0  0  0  0  0  0  0  0
   25.8330   14.7500   22.9750 C   0  0  0  0  0  0  0  0  0  0  0  0
   25.5440   15.5820   24.0230 N   0  0  0  0  0  0  0  0  0  0  0  0
   25.1640   14.7780   21.8640 N   0  0  0  0  0  0  0  0  0  0  0  0
   25.4210   13.8210   20.7890 C   0  0  2  0  0  0  0  0  0  0  0  0
   24.7870   14.4980   19.5700 C   0  0  0  0  0  0  0  0  0  0  0  0
   24.7230   12.4920   21.0290 C   0  0  0  0  0  0  0  0  0  0  0  0
   24.0300   12.2460   22.2140 C   0  0  0  0  0  0  0  0  0  0  0  0
   23.3930   11.0510   22.4600 C   0  0  0  0  0  0  0  0  0  0  0  0
   22.7300   10.9340   23.6880 N   0  0  0  0  0  0  0  0  0  0  0  0
   23.2270   11.1790   24.9560 C   0  0  0  0  0  0  0  0  0  0  0  0
   24.3980   11.4200   25.2200 O   0  0  0  0  0  0  0  0  0  0  0  0
   22.2180   11.1700   26.0440 C   0  0  0  0  0  0  0  0  0  0  0  0
   20.9200   10.7710   25.7790 C   0  0  0  0  0  0  0  0  0  0  0  0
   20.0200   10.7840   26.8300 C   0  0  0  0  0  0  0  0  0  0  0  0
   20.4350   11.1830   28.0860 C   0  0  0  0  0  0  0  0  0  0  0  0
   19.5950   11.2210   29.1350 F   0  0  0  0  0  0  0  0  0  0  0  0
   21.7460   11.5680   28.2490 C   0  0  0  0  0  0  0  0  0  0  0  0
   22.6410   11.5710   27.2470 N   0  0  0  0  0  0  0  0  0  0  0  0
   23.4010   10.0400   21.5070 C   0  0  0  0  0  0  0  0  0  0  0  0
   24.0870   10.2650   20.3260 C   0  0  0  0  0  0  0  0  0  0  0  0
   24.7490   11.4570   20.1070 C   0  0  0  0  0  0  0  0  0  0  0  0
   25.4400   11.6410   18.9520 F   0  0  0  0  0  0  0  0  0  0  0  0
   26.9060   13.7270   20.5210 C   0  0  0  0  0  0  0  0  0  0  0  0
   27.7580   13.0790   21.9370 S   0  0  0  0  0  0  0  0  0  0  0  0
   29.1070   13.6150   21.8900 O   0  0  0  0  0  0  0  0  0  0  0  0
   27.4480   11.7010   22.1550 O   0  0  0  0  0  0  0  0  0  0  0  0
   26.8613   13.9042   25.3235 H   0  0  0  0  0  0  0  0  0  0  0  0
   28.0817   12.7984   24.6063 H   0  0  0  0  0  0  0  0  0  0  0  0
   28.3667   14.5719   24.6063 H   0  0  0  0  0  0  0  0  0  0  0  0
   24.7950   16.2170   23.9550 H   0  0  0  0  0  0  0  0  0  0  0  0
   26.0860   15.5450   24.8450 H   0  0  0  0  0  0  0  0  0  0  0  0
   24.0711   15.2625   19.9062 H   0  0  0  0  0  0  0  0  0  0  0  0
   25.5729   14.9728   18.9642 H   0  0  0  0  0  0  0  0  0  0  0  0
   24.2618   13.7449   18.9642 H   0  0  0  0  0  0  0  0  0  0  0  0
   23.9911   13.0352   22.9793 H   0  0  0  0  0  0  0  0  0  0  0  0
   21.7910   10.6420   23.6440 H   0  0  0  0  0  0  0  0  0  0  0  0
   20.6149   10.4552   24.7705 H   0  0  0  0  0  0  0  0  0  0  0  0
   18.9764   10.4773   26.6659 H   0  0  0  0  0  0  0  0  0  0  0  0
   22.0772   11.8887   29.2477 H   0  0  0  0  0  0  0  0  0  0  0  0
   22.8777    9.0891   21.6857 H   0  0  0  0  0  0  0  0  0  0  0  0
   24.1051    9.4840   19.5516 H   0  0  0  0  0  0  0  0  0  0  0  0
   27.0766   13.0624   19.6613 H   0  0  0  0  0  0  0  0  0  0  0  0
   27.2916   14.7346   20.3062 H   0  0  0  0  0  0  0  0  0  0  0  0
  1  2  1  0
  2  3  1  0
  3  4  1  0
  3  5  2  0
  5  6  1  0
  6  7  1  6
  6  8  1  0
  8  9  2  0
  9 10  1  0
 10 11  1  0
 11 12  1  0
 12 13  2  0
 12 14  1  0
 14 15  2  0
 15 16  1  0
 16 17  2  0
 17 18  1  0
 17 19  1  0
 19 20  2  0
 10 21  2  0
 21 22  1  0
 22 23  2  0
 23 24  1  0
  6 25  1  0
 25 26  1  0
 26 27  2  0
 26 28  2  0
 26  2  1  0
 23  8  1  0
 20 14  1  0
  1 29  1  0
  1 30  1  0
  1 31  1  0
  4 32  1  0
  4 33  1  0
  7 34  1  0
  7 35  1  0
  7 36  1  0
  9 37  1  0
 11 38  1  0
 15 39  1  0
 16 40  1  0
 19 41  1  0
 21 42  1  0
 22 43  1  0
 25 44  1  0
 25 45  1  0
M  END
>  <meeko>  (1)
{"is_sidechain": false}

>  <source_group>  (1)
BACE1-476

>  <source_system>  (1)
BACE1_verubecestat

>  <source_run>  (1)
alternate_476_seed3301_ex32

>  <source_seed>  (1)
3301

>  <vina_pose_rank>  (1)
1

>  <vina_affinity_kcal_mol>  (1)
-9.1839999999999993

>  <vina_rmsd_to_crystal_angstrom>  (1)
7.1093000000000002

$$$$
BACE1_verubecestat__alternate_476_seed3301_ex32__pose02
     RDKit          3D

 45 47  0  0  0  0  0  0  0  0999 V2000
   29.1900   11.7630   23.1830 C   0  0  0  0  0  0  0  0  0  0  0  0
   28.2200   12.2590   22.1870 N   0  0  0  0  0  0  0  0  0  0  0  0
   27.6030   13.5260   22.2770 C   0  0  0  0  0  0  0  0  0  0  0  0
   28.0960   14.3130   23.2840 N   0  0  0  0  0  0  0  0  0  0  0  0
   26.6700   13.9340   21.4730 N   0  0  0  0  0  0  0  0  0  0  0  0
   26.0870   13.0520   20.4640 C   0  0  2  0  0  0  0  0  0  0  0  0
   25.4290   14.0330   19.4890 C   0  0  0  0  0  0  0  0  0  0  0  0
   25.0130   12.1470   21.0480 C   0  0  0  0  0  0  0  0  0  0  0  0
   24.6030   12.2800   22.3740 C   0  0  0  0  0  0  0  0  0  0  0  0
   23.6360   11.4740   22.9300 C   0  0  0  0  0  0  0  0  0  0  0  0
   23.3150   11.7130   24.2720 N   0  0  0  0  0  0  0  0  0  0  0  0
   22.4570   12.6670   24.7910 C   0  0  0  0  0  0  0  0  0  0  0  0
   21.9260   13.5620   24.1460 O   0  0  0  0  0  0  0  0  0  0  0  0
   22.1620   12.5330   26.2380 C   0  0  0  0  0  0  0  0  0  0  0  0
   22.9040   13.2470   27.1640 C   0  0  0  0  0  0  0  0  0  0  0  0
   22.5870   13.0830   28.5010 C   0  0  0  0  0  0  0  0  0  0  0  0
   21.5600   12.2330   28.8650 C   0  0  0  0  0  0  0  0  0  0  0  0
   21.2230   12.0350   30.1510 F   0  0  0  0  0  0  0  0  0  0  0  0
   20.8840   11.5620   27.8720 C   0  0  0  0  0  0  0  0  0  0  0  0
   21.1720   11.6970   26.5670 N   0  0  0  0  0  0  0  0  0  0  0  0
   23.0100   10.4970   22.1660 C   0  0  0  0  0  0  0  0  0  0  0  0
   23.4070   10.3480   20.8490 C   0  0  0  0  0  0  0  0  0  0  0  0
   24.4010   11.1430   20.3140 C   0  0  0  0  0  0  0  0  0  0  0  0
   24.7930   10.9580   19.0270 F   0  0  0  0  0  0  0  0  0  0  0  0
   27.1820   12.3380   19.7030 C   0  0  0  0  0  0  0  0  0  0  0  0
   28.1030   11.2710   20.7820 S   0  0  0  0  0  0  0  0  0  0  0  0
   29.4360   11.1640   20.2180 O   0  0  0  0  0  0  0  0  0  0  0  0
   27.3200   10.1550   21.2130 O   0  0  0  0  0  0  0  0  0  0  0  0
   28.8079   11.9584   24.1958 H   0  0  0  0  0  0  0  0  0  0  0  0
   29.3336   10.6808   23.0477 H   0  0  0  0  0  0  0  0  0  0  0  0
   30.1514   12.2802   23.0477 H   0  0  0  0  0  0  0  0  0  0  0  0
   27.7290   15.2160   23.4270 H   0  0  0  0  0  0  0  0  0  0  0  0
   28.8170   13.9770   23.8640 H   0  0  0  0  0  0  0  0  0  0  0  0
   24.9037   14.8161   20.0554 H   0  0  0  0  0  0  0  0  0  0  0  0
   26.2012   14.4940   18.8557 H   0  0  0  0  0  0  0  0  0  0  0  0
   24.7095   13.4934   18.8557 H   0  0  0  0  0  0  0  0  0  0  0  0
   25.0691   13.0568   22.9979 H   0  0  0  0  0  0  0  0  0  0  0  0
   23.7550   11.1280   24.9310 H   0  0  0  0  0  0  0  0  0  0  0  0
   23.7152   13.9195   26.8485 H   0  0  0  0  0  0  0  0  0  0  0  0
   23.1512   13.6279   29.2722 H   0  0  0  0  0  0  0  0  0  0  0  0
   20.0686   10.8824   28.1607 H   0  0  0  0  0  0  0  0  0  0  0  0
   22.2221    9.8608   22.5954 H   0  0  0  0  0  0  0  0  0  0  0  0
   22.9242    9.5859   20.2197 H   0  0  0  0  0  0  0  0  0  0  0  0
   26.7307   11.7369   18.8998 H   0  0  0  0  0  0  0  0  0  0  0  0
   27.8658   13.0886   19.2798 H   0  0  0  0  0  0  0  0  0  0  0  0
  1  2  1  0
  2  3  1  0
  3  4  1  0
  3  5  2  0
  5  6  1  0
  6  7  1  6
  6  8  1  0
  8  9  2  0
  9 10  1  0
 10 11  1  0
 11 12  1  0
 12 13  2  0
 12 14  1  0
 14 15  2  0
 15 16  1  0
 16 17  2  0
 17 18  1  0
 17 19  1  0
 19 20  2  0
 10 21  2  0
 21 22  1  0
 22 23  2  0
 23 24  1  0
  6 25  1  0
 25 26  1  0
 26 27  2  0
 26 28  2  0
 26  2  1  0
 23  8  1  0
 20 14  1  0
  1 29  1  0
  1 30  1  0
  1 31  1  0
  4 32  1  0
  4 33  1  0
  7 34  1  0
  7 35  1  0
  7 36  1  0
  9 37  1  0
 11 38  1  0
 15 39  1  0
 16 40  1  0
 19 41  1  0
 21 42  1  0
 22 43  1  0
 25 44  1  0
 25 45  1  0
M  END
>  <meeko>  (2)
{"is_sidechain": false}

>  <source_group>  (2)
BACE1-476

>  <source_system>  (2)
BACE1_verubecestat

>  <source_run>  (2)
alternate_476_seed3301_ex32

>  <source_seed>  (2)
3301

>  <vina_pose_rank>  (2)
2

>  <vina_affinity_kcal_mol>  (2)
-8.593

>  <vina_rmsd_to_crystal_angstrom>  (2)
7.3158000000000003

$$$$
BACE1_verubecestat__alternate_476_seed3301_ex32__pose03
     RDKit          3D

 45 47  0  0  0  0  0  0  0  0999 V2000
   23.1340   13.4900   20.1840 C   0  0  0  0  0  0  0  0  0  0  0  0
   24.5220   13.1210   20.5250 N   0  0  0  0  0  0  0  0  0  0  0  0
   24.9160   11.7970   20.8230 C   0  0  0  0  0  0  0  0  0  0  0  0
   23.9320   10.8660   20.6190 N   0  0  0  0  0  0  0  0  0  0  0  0
   26.1040   11.4710   21.2300 N   0  0  0  0  0  0  0  0  0  0  0  0
   27.1150   12.4820   21.5340 C   0  0  2  0  0  0  0  0  0  0  0  0
   28.4210   11.6830   21.4990 C   0  0  0  0  0  0  0  0  0  0  0  0
   26.9350   13.0670   22.9270 C   0  0  0  0  0  0  0  0  0  0  0  0
   25.8530   12.7030   23.7270 C   0  0  0  0  0  0  0  0  0  0  0  0
   25.6640   13.2190   24.9890 C   0  0  0  0  0  0  0  0  0  0  0  0
   24.5380   12.7680   25.6890 N   0  0  0  0  0  0  0  0  0  0  0  0
   23.2090   12.8300   25.3070 C   0  0  0  0  0  0  0  0  0  0  0  0
   22.7870   13.4220   24.3220 O   0  0  0  0  0  0  0  0  0  0  0  0
   22.2670   12.0770   26.1690 C   0  0  0  0  0  0  0  0  0  0  0  0
   21.1040   11.5530   25.6290 C   0  0  0  0  0  0  0  0  0  0  0  0
   20.2600   10.8610   26.4790 C   0  0  0  0  0  0  0  0  0  0  0  0
   20.5950   10.7120   27.8110 C   0  0  0  0  0  0  0  0  0  0  0  0
   19.8020   10.0570   28.6750 F   0  0  0  0  0  0  0  0  0  0  0  0
   21.7700   11.2740   28.2550 C   0  0  0  0  0  0  0  0  0  0  0  0
   22.6070   11.9560   27.4560 N   0  0  0  0  0  0  0  0  0  0  0  0
   26.5760   14.1190   25.5240 C   0  0  0  0  0  0  0  0  0  0  0  0
   27.6550   14.4950   24.7430 C   0  0  0  0  0  0  0  0  0  0  0  0
   27.8140   13.9940   23.4660 C   0  0  0  0  0  0  0  0  0  0  0  0
   28.8650   14.4010   22.7090 F   0  0  0  0  0  0  0  0  0  0  0  0
   27.1870   13.4990   20.4170 C   0  0  0  0  0  0  0  0  0  0  0  0
   25.6580   14.3910   20.2810 S   0  0  0  0  0  0  0  0  0  0  0  0
   25.5450   14.8090   18.8950 O   0  0  0  0  0  0  0  0  0  0  0  0
   25.4510   15.2550   21.4010 O   0  0  0  0  0  0  0  0  0  0  0  0
   22.5577   13.6432   21.1083 H   0  0  0  0  0  0  0  0  0  0  0  0
   23.1357   14.4189   19.5948 H   0  0  0  0  0  0  0  0  0  0  0  0
   22.6742   12.6829   19.5948 H   0  0  0  0  0  0  0  0  0  0  0  0
   24.1110    9.9150   20.7980 H   0  0  0  0  0  0  0  0  0  0  0  0
   23.0470   11.1480   20.2920 H   0  0  0  0  0  0  0  0  0  0  0  0
   28.7539   11.4793   22.5274 H   0  0  0  0  0  0  0  0  0  0  0  0
   28.2549   10.7317   20.9722 H   0  0  0  0  0  0  0  0  0  0  0  0
   29.1923   12.2640   20.9722 H   0  0  0  0  0  0  0  0  0  0  0  0
   25.1244   11.9777   23.3359 H   0  0  0  0  0  0  0  0  0  0  0  0
   24.7140   12.3530   26.5640 H   0  0  0  0  0  0  0  0  0  0  0  0
   20.8607   11.6823   24.5641 H   0  0  0  0  0  0  0  0  0  0  0  0
   19.3236   10.4301   26.0949 H   0  0  0  0  0  0  0  0  0  0  0  0
   22.0368   11.1591   29.3160 H   0  0  0  0  0  0  0  0  0  0  0  0
   26.4447   14.5215   26.5392 H   0  0  0  0  0  0  0  0  0  0  0  0
   28.3956   15.2022   25.1447 H   0  0  0  0  0  0  0  0  0  0  0  0
   28.0014   14.2082   20.6263 H   0  0  0  0  0  0  0  0  0  0  0  0
   27.3742   12.9716   19.4700 H   0  0  0  0  0  0  0  0  0  0  0  0
  1  2  1  0
  2  3  1  0
  3  4  1  0
  3  5  2  0
  5  6  1  0
  6  7  1  1
  6  8  1  0
  8  9  2  0
  9 10  1  0
 10 11  1  0
 11 12  1  0
 12 13  2  0
 12 14  1  0
 14 15  2  0
 15 16  1  0
 16 17  2  0
 17 18  1  0
 17 19  1  0
 19 20  2  0
 10 21  2  0
 21 22  1  0
 22 23  2  0
 23 24  1  0
  6 25  1  0
 25 26  1  0
 26 27  2  0
 26 28  2  0
 26  2  1  0
 23  8  1  0
 20 14  1  0
  1 29  1  0
  1 30  1  0
  1 31  1  0
  4 32  1  0
  4 33  1  0
  7 34  1  0
  7 35  1  0
  7 36  1  0
  9 37  1  0
 11 38  1  0
 15 39  1  0
 16 40  1  0
 19 41  1  0
 21 42  1  0
 22 43  1  0
 25 44  1  0
 25 45  1  0
M  END
>  <meeko>  (3)
{"is_sidechain": false}

>  <source_group>  (3)
BACE1-476

>  <source_system>  (3)
BACE1_verubecestat

>  <source_run>  (3)
alternate_476_seed3301_ex32

>  <source_seed>  (3)
3301

>  <vina_pose_rank>  (3)
3

>  <vina_affinity_kcal_mol>  (3)
-8.5600000000000005

>  <vina_rmsd_to_crystal_angstrom>  (3)
7.5369000000000002

$$$$
BACE1_verubecestat__alternate_476_seed3301_ex32__pose04
     RDKit          3D

 45 47  0  0  0  0  0  0  0  0999 V2000
   28.7620   14.0810   25.4880 C   0  0  0  0  0  0  0  0  0  0  0  0
   28.2010   14.2680   24.1360 N   0  0  0  0  0  0  0  0  0  0  0  0
   27.1580   15.1780   23.8540 C   0  0  0  0  0  0  0  0  0  0  0  0
   26.8180   15.9780   24.9120 N   0  0  0  0  0  0  0  0  0  0  0  0
   26.5800   15.2780   22.6970 N   0  0  0  0  0  0  0  0  0  0  0  0
   26.8850   14.3550   21.6040 C   0  0  2  0  0  0  0  0  0  0  0  0
   26.3760   15.1050   20.3700 C   0  0  0  0  0  0  0  0  0  0  0  0
   26.1210   13.0460   21.7330 C   0  0  0  0  0  0  0  0  0  0  0  0
   25.3060   12.7930   22.8350 C   0  0  0  0  0  0  0  0  0  0  0  0
   24.6060   11.6170   22.9790 C   0  0  0  0  0  0  0  0  0  0  0  0
   23.8220   11.4900   24.1330 N   0  0  0  0  0  0  0  0  0  0  0  0
   22.8110   12.3230   24.5780 C   0  0  0  0  0  0  0  0  0  0  0  0
   22.5200   13.4040   24.0830 O   0  0  0  0  0  0  0  0  0  0  0  0
   22.0240   11.8070   25.7240 C   0  0  0  0  0  0  0  0  0  0  0  0
   20.7860   11.2280   25.5070 C   0  0  0  0  0  0  0  0  0  0  0  0
   20.0940   10.7650   26.6130 C   0  0  0  0  0  0  0  0  0  0  0  0
   20.6480   10.8890   27.8720 C   0  0  0  0  0  0  0  0  0  0  0  0
   20.0100   10.4630   28.9760 F   0  0  0  0  0  0  0  0  0  0  0  0
   21.8830   11.4850   27.9870 C   0  0  0  0  0  0  0  0  0  0  0  0
   22.5760   11.9490   26.9340 N   0  0  0  0  0  0  0  0  0  0  0  0
   24.6740   10.6340   21.9990 C   0  0  0  0  0  0  0  0  0  0  0  0
   25.4800   10.8670   20.8990 C   0  0  0  0  0  0  0  0  0  0  0  0
   26.2020   12.0380   20.7840 C   0  0  0  0  0  0  0  0  0  0  0  0
   27.0090   12.2300   19.7090 F   0  0  0  0  0  0  0  0  0  0  0  0
   28.3820   14.2110   21.4490 C   0  0  0  0  0  0  0  0  0  0  0  0
   29.0950   13.4730   22.8980 S   0  0  0  0  0  0  0  0  0  0  0  0
   30.4620   13.9550   22.9780 O   0  0  0  0  0  0  0  0  0  0  0  0
   28.7170   12.1010   23.0310 O   0  0  0  0  0  0  0  0  0  0  0  0
   28.0000   14.3350   26.2395 H   0  0  0  0  0  0  0  0  0  0  0  0
   29.0681   13.0322   25.6161 H   0  0  0  0  0  0  0  0  0  0  0  0
   29.6361   14.7364   25.6161 H   0  0  0  0  0  0  0  0  0  0  0  0
   26.1010   16.6460   24.8140 H   0  0  0  0  0  0  0  0  0  0  0  0
   27.2910   15.8870   25.7710 H   0  0  0  0  0  0  0  0  0  0  0  0
   25.7847   15.9762   20.6884 H   0  0  0  0  0  0  0  0  0  0  0  0
   27.2320   15.4432   19.7675 H   0  0  0  0  0  0  0  0  0  0  0  0
   25.7456   14.4344   19.7675 H   0  0  0  0  0  0  0  0  0  0  0  0
   25.2192   13.5610   23.6177 H   0  0  0  0  0  0  0  0  0  0  0  0
   24.0150   10.7080   24.6990 H   0  0  0  0  0  0  0  0  0  0  0  0
   20.3674   11.1390   24.4936 H   0  0  0  0  0  0  0  0  0  0  0  0
   19.1051   10.2994   26.4893 H   0  0  0  0  0  0  0  0  0  0  0  0
   22.3240   11.5863   28.9896 H   0  0  0  0  0  0  0  0  0  0  0  0
   24.1038    9.6983   22.0951 H   0  0  0  0  0  0  0  0  0  0  0  0
   25.5465   10.1086   20.1050 H   0  0  0  0  0  0  0  0  0  0  0  0
   28.5952   13.5746   20.5775 H   0  0  0  0  0  0  0  0  0  0  0  0
   28.8207   15.2099   21.3086 H   0  0  0  0  0  0  0  0  0  0  0  0
  1  2  1  0
  2  3  1  0
  3  4  1  0
  3  5  2  0
  5  6  1  0
  6  7  1  6
  6  8  1  0
  8  9  2  0
  9 10  1  0
 10 11  1  0
 11 12  1  0
 12 13  2  0
 12 14  1  0
 14 15  2  0
 15 16  1  0
 16 17  2  0
 17 18  1  0
 17 19  1  0
 19 20  2  0
 10 21  2  0
 21 22  1  0
 22 23  2  0
 23 24  1  0
  6 25  1  0
 25 26  1  0
 26 27  2  0
 26 28  2  0
 26  2  1  0
 23  8  1  0
 20 14  1  0
  1 29  1  0
  1 30  1  0
  1 31  1  0
  4 32  1  0
  4 33  1  0
  7 34  1  0
  7 35  1  0
  7 36  1  0
  9 37  1  0
 11 38  1  0
 15 39  1  0
 16 40  1  0
 19 41  1  0
 21 42  1  0
 22 43  1  0
 25 44  1  0
 25 45  1  0
M  END
>  <meeko>  (4)
{"is_sidechain": false}

>  <source_group>  (4)
BACE1-476

>  <source_system>  (4)
BACE1_verubecestat

>  <source_run>  (4)
alternate_476_seed3301_ex32

>  <source_seed>  (4)
3301

>  <vina_pose_rank>  (4)
4

>  <vina_affinity_kcal_mol>  (4)
-8.3949999999999996

>  <vina_rmsd_to_crystal_angstrom>  (4)
7.6268000000000002

$$$$
BACE1_verubecestat__alternate_476_seed3301_ex32__pose05
     RDKit          3D

 45 47  0  0  0  0  0  0  0  0999 V2000
   23.3350   10.4550   24.2770 C   0  0  0  0  0  0  0  0  0  0  0  0
   23.6850   11.3040   23.1210 N   0  0  0  0  0  0  0  0  0  0  0  0
   23.4900   10.9010   21.7820 C   0  0  0  0  0  0  0  0  0  0  0  0
   22.8080    9.7200   21.6510 N   0  0  0  0  0  0  0  0  0  0  0  0
   23.8900   11.5860   20.7560 N   0  0  0  0  0  0  0  0  0  0  0  0
   24.6990   12.7950   20.9080 C   0  0  2  0  0  0  0  0  0  0  0  0
   24.5270   13.4940   19.5570 C   0  0  0  0  0  0  0  0  0  0  0  0
   26.1710   12.4740   21.1110 C   0  0  0  0  0  0  0  0  0  0  0  0
   27.0130   13.3550   21.7890 C   0  0  0  0  0  0  0  0  0  0  0  0
   28.3500   13.0920   21.9850 C   0  0  0  0  0  0  0  0  0  0  0  0
   29.0830   14.0590   22.6840 N   0  0  0  0  0  0  0  0  0  0  0  0
   29.3190   14.1370   24.0450 C   0  0  0  0  0  0  0  0  0  0  0  0
   28.8010   13.4210   24.8920 O   0  0  0  0  0  0  0  0  0  0  0  0
   30.3100   15.1600   24.4590 C   0  0  0  0  0  0  0  0  0  0  0  0
   29.8930   16.2930   25.1360 C   0  0  0  0  0  0  0  0  0  0  0  0
   30.8590   17.2150   25.4960 C   0  0  0  0  0  0  0  0  0  0  0  0
   32.1840   16.9830   25.1790 C   0  0  0  0  0  0  0  0  0  0  0  0
   33.1550   17.8540   25.5000 F   0  0  0  0  0  0  0  0  0  0  0  0
   32.5000   15.8300   24.4980 C   0  0  0  0  0  0  0  0  0  0  0  0
   31.5840   14.9190   24.1300 N   0  0  0  0  0  0  0  0  0  0  0  0
   28.9090   11.9080   21.5230 C   0  0  0  0  0  0  0  0  0  0  0  0
   28.0890   11.0230   20.8440 C   0  0  0  0  0  0  0  0  0  0  0  0
   26.7570   11.3140   20.6270 C   0  0  0  0  0  0  0  0  0  0  0  0
   25.9810   10.4430   19.9330 F   0  0  0  0  0  0  0  0  0  0  0  0
   24.0890   13.6990   21.9560 C   0  0  0  0  0  0  0  0  0  0  0  0
   24.1120   12.9160   23.5490 S   0  0  0  0  0  0  0  0  0  0  0  0
   22.9990   13.4710   24.2990 O   0  0  0  0  0  0  0  0  0  0  0  0
   25.4420   12.7940   24.0580 O   0  0  0  0  0  0  0  0  0  0  0  0
   23.5576   10.9949   25.2092 H   0  0  0  0  0  0  0  0  0  0  0  0
   22.2630   10.2111   24.2416 H   0  0  0  0  0  0  0  0  0  0  0  0
   23.9237    9.5265   24.2416 H   0  0  0  0  0  0  0  0  0  0  0  0
   22.6220    9.3560   20.7560 H   0  0  0  0  0  0  0  0  0  0  0  0
   22.5030    9.2360   22.4530 H   0  0  0  0  0  0  0  0  0  0  0  0
   24.2671   14.5502   19.7211 H   0  0  0  0  0  0  0  0  0  0  0  0
   25.4673   13.4316   18.9896 H   0  0  0  0  0  0  0  0  0  0  0  0
   23.7230   13.0024   18.9896 H   0  0  0  0  0  0  0  0  0  0  0  0
   26.5939   14.2934   22.1811 H   0  0  0  0  0  0  0  0  0  0  0  0
   29.4820   14.7740   22.1380 H   0  0  0  0  0  0  0  0  0  0  0  0
   28.8323   16.4542   25.3788 H   0  0  0  0  0  0  0  0  0  0  0  0
   30.5732   18.1312   26.0336 H   0  0  0  0  0  0  0  0  0  0  0  0
   33.5538   15.6452   24.2425 H   0  0  0  0  0  0  0  0  0  0  0  0
   29.9718   11.6799   21.6915 H   0  0  0  0  0  0  0  0  0  0  0  0
   28.5045   10.0748   20.4722 H   0  0  0  0  0  0  0  0  0  0  0  0
   24.6648   14.6349   22.0052 H   0  0  0  0  0  0  0  0  0  0  0  0
   23.0451   13.9077   21.6792 H   0  0  0  0  0  0  0  0  0  0  0  0
  1  2  1  0
  2  3  1  0
  3  4  1  0
  3  5  2  0
  5  6  1  0
  6  7  1  6
  6  8  1  0
  8  9  2  0
  9 10  1  0
 10 11  1  0
 11 12  1  0
 12 13  2  0
 12 14  1  0
 14 15  2  0
 15 16  1  0
 16 17  2  0
 17 18  1  0
 17 19  1  0
 19 20  2  0
 10 21  2  0
 21 22  1  0
 22 23  2  0
 23 24  1  0
  6 25  1  0
 25 26  1  0
 26 27  2  0
 26 28  2  0
 26  2  1  0
 23  8  1  0
 20 14  1  0
  1 29  1  0
  1 30  1  0
  1 31  1  0
  4 32  1  0
  4 33  1  0
  7 34  1  0
  7 35  1  0
  7 36  1  0
  9 37  1  0
 11 38  1  0
 15 39  1  0
 16 40  1  0
 19 41  1  0
 21 42  1  0
 22 43  1  0
 25 44  1  0
 25 45  1  0
M  END
>  <meeko>  (5)
{"is_sidechain": false}

>  <source_group>  (5)
BACE1-476

>  <source_system>  (5)
BACE1_verubecestat

>  <source_run>  (5)
alternate_476_seed3301_ex32

>  <source_seed>  (5)
3301

>  <vina_pose_rank>  (5)
5

>  <vina_affinity_kcal_mol>  (5)
-8.3379999999999992

>  <vina_rmsd_to_crystal_angstrom>  (5)
5.3131000000000004

$$$$
BACE1_verubecestat__alternate_476_seed3301_ex32__pose06
     RDKit          3D

 45 47  0  0  0  0  0  0  0  0999 V2000
   17.0510   14.5560   26.5530 C   0  0  0  0  0  0  0  0  0  0  0  0
   17.8480   13.3770   26.9480 N   0  0  0  0  0  0  0  0  0  0  0  0
   18.0500   13.0020   28.2950 C   0  0  0  0  0  0  0  0  0  0  0  0
   17.3200   13.7340   29.1920 N   0  0  0  0  0  0  0  0  0  0  0  0
   18.8340   12.0360   28.6650 N   0  0  0  0  0  0  0  0  0  0  0  0
   19.6800   11.3240   27.7080 C   0  0  2  0  0  0  0  0  0  0  0  0
   20.0310   10.0340   28.4540 C   0  0  0  0  0  0  0  0  0  0  0  0
   20.9630   12.0820   27.4060 C   0  0  0  0  0  0  0  0  0  0  0  0
   21.5740   11.9940   26.1560 C   0  0  0  0  0  0  0  0  0  0  0  0
   22.7370   12.6660   25.8560 C   0  0  0  0  0  0  0  0  0  0  0  0
   23.2460   12.4940   24.5620 N   0  0  0  0  0  0  0  0  0  0  0  0
   23.0970   13.3240   23.4650 C   0  0  0  0  0  0  0  0  0  0  0  0
   22.3690   14.3070   23.4190 O   0  0  0  0  0  0  0  0  0  0  0  0
   23.9320   12.9760   22.2900 C   0  0  0  0  0  0  0  0  0  0  0  0
   23.3980   13.0530   21.0160 C   0  0  0  0  0  0  0  0  0  0  0  0
   24.2210   12.7150   19.9560 C   0  0  0  0  0  0  0  0  0  0  0  0
   25.5240   12.3220   20.1940 C   0  0  0  0  0  0  0  0  0  0  0  0
   26.3560   11.9750   19.1980 F   0  0  0  0  0  0  0  0  0  0  0  0
   25.9620   12.2700   21.4980 C   0  0  0  0  0  0  0  0  0  0  0  0
   25.1850   12.5870   22.5470 N   0  0  0  0  0  0  0  0  0  0  0  0
   23.3380   13.4880   26.8010 C   0  0  0  0  0  0  0  0  0  0  0  0
   22.7480   13.5840   28.0490 C   0  0  0  0  0  0  0  0  0  0  0  0
   21.5980   12.8790   28.3460 C   0  0  0  0  0  0  0  0  0  0  0  0
   21.0550   12.9680   29.5870 F   0  0  0  0  0  0  0  0  0  0  0  0
   18.8690   10.9270   26.4940 C   0  0  0  0  0  0  0  0  0  0  0  0
   18.2900   12.3650   25.6290 S   0  0  0  0  0  0  0  0  0  0  0  0
   17.0650   11.9760   24.9540 O   0  0  0  0  0  0  0  0  0  0  0  0
   19.3640   13.0700   25.0010 O   0  0  0  0  0  0  0  0  0  0  0  0
   16.6978   15.0785   27.4542 H   0  0  0  0  0  0  0  0  0  0  0  0
   17.6749   15.2368   25.9553 H   0  0  0  0  0  0  0  0  0  0  0  0
   16.1867   14.2308   25.9553 H   0  0  0  0  0  0  0  0  0  0  0  0
   17.3940   13.5470   30.1560 H   0  0  0  0  0  0  0  0  0  0  0  0
   16.7220   14.4480   28.8740 H   0  0  0  0  0  0  0  0  0  0  0  0
   19.9824   10.2127   29.5383 H   0  0  0  0  0  0  0  0  0  0  0  0
   19.3148    9.2454   28.1799 H   0  0  0  0  0  0  0  0  0  0  0  0
   21.0480    9.7170   28.1799 H   0  0  0  0  0  0  0  0  0  0  0  0
   21.1100   11.3651   25.3819 H   0  0  0  0  0  0  0  0  0  0  0  0
   23.7770   11.6780   24.4150 H   0  0  0  0  0  0  0  0  0  0  0  0
   22.3579   13.3711   20.8517 H   0  0  0  0  0  0  0  0  0  0  0  0
   23.8384   12.7592   18.9256 H   0  0  0  0  0  0  0  0  0  0  0  0
   26.9979   11.9537   21.6902 H   0  0  0  0  0  0  0  0  0  0  0  0
   24.2558   14.0461   26.5642 H   0  0  0  0  0  0  0  0  0  0  0  0
   23.2010   14.2306   28.8150 H   0  0  0  0  0  0  0  0  0  0  0  0
   19.4986   10.3286   25.8190 H   0  0  0  0  0  0  0  0  0  0  0  0
   17.9999   10.3398   26.8257 H   0  0  0  0  0  0  0  0  0  0  0  0
  1  2  1  0
  2  3  1  0
  3  4  1  0
  3  5  2  0
  5  6  1  0
  6  7  1  1
  6  8  1  0
  8  9  2  0
  9 10  1  0
 10 11  1  0
 11 12  1  0
 12 13  2  0
 12 14  1  0
 14 15  2  0
 15 16  1  0
 16 17  2  0
 17 18  1  0
 17 19  1  0
 19 20  2  0
 10 21  2  0
 21 22  1  0
 22 23  2  0
 23 24  1  0
  6 25  1  0
 25 26  1  0
 26 27  2  0
 26 28  2  0
 26  2  1  0
 23  8  1  0
 20 14  1  0
  1 29  1  0
  1 30  1  0
  1 31  1  0
  4 32  1  0
  4 33  1  0
  7 34  1  0
  7 35  1  0
  7 36  1  0
  9 37  1  0
 11 38  1  0
 15 39  1  0
 16 40  1  0
 19 41  1  0
 21 42  1  0
 22 43  1  0
 25 44  1  0
 25 45  1  0
M  END
>  <meeko>  (6)
{"is_sidechain": false}

>  <source_group>  (6)
BACE1-476

>  <source_system>  (6)
BACE1_verubecestat

>  <source_run>  (6)
alternate_476_seed3301_ex32

>  <source_seed>  (6)
3301

>  <vina_pose_rank>  (6)
6

>  <vina_affinity_kcal_mol>  (6)
-8.3320000000000007

>  <vina_rmsd_to_crystal_angstrom>  (6)
6.8754999999999997

$$$$
BACE1_verubecestat__alternate_476_seed3301_ex32__pose07
     RDKit          3D

 45 47  0  0  0  0  0  0  0  0999 V2000
   23.2470   13.4160   19.9850 C   0  0  0  0  0  0  0  0  0  0  0  0
   24.6260   13.1290   20.4260 N   0  0  0  0  0  0  0  0  0  0  0  0
   25.1070   11.8200   20.6490 C   0  0  0  0  0  0  0  0  0  0  0  0
   24.2310   10.8360   20.2750 N   0  0  0  0  0  0  0  0  0  0  0  0
   26.2780   11.5550   21.1390 N   0  0  0  0  0  0  0  0  0  0  0  0
   27.1660   12.6110   21.6210 C   0  0  2  0  0  0  0  0  0  0  0  0
   28.5350   11.9250   21.6450 C   0  0  0  0  0  0  0  0  0  0  0  0
   26.8140   13.0520   23.0340 C   0  0  0  0  0  0  0  0  0  0  0  0
   25.6260   12.6450   23.6390 C   0  0  0  0  0  0  0  0  0  0  0  0
   25.2800   13.0300   24.9150 C   0  0  0  0  0  0  0  0  0  0  0  0
   24.0600   12.5490   25.4070 N   0  0  0  0  0  0  0  0  0  0  0  0
   23.2080   13.1470   26.3190 C   0  0  0  0  0  0  0  0  0  0  0  0
   23.4570   14.1630   26.9540 O   0  0  0  0  0  0  0  0  0  0  0  0
   21.8890   12.4880   26.4790 C   0  0  0  0  0  0  0  0  0  0  0  0
   21.7090   11.5330   27.4640 C   0  0  0  0  0  0  0  0  0  0  0  0
   20.4580   10.9490   27.5670 C   0  0  0  0  0  0  0  0  0  0  0  0
   19.4470   11.3310   26.7060 C   0  0  0  0  0  0  0  0  0  0  0  0
   18.2200   10.7860   26.7630 F   0  0  0  0  0  0  0  0  0  0  0  0
   19.7250   12.2860   25.7550 C   0  0  0  0  0  0  0  0  0  0  0  0
   20.9300   12.8660   25.6270 N   0  0  0  0  0  0  0  0  0  0  0  0
   26.1320   13.8350   25.6620 C   0  0  0  0  0  0  0  0  0  0  0  0
   27.3140   14.2510   25.0750 C   0  0  0  0  0  0  0  0  0  0  0  0
   27.6320   13.8830   23.7830 C   0  0  0  0  0  0  0  0  0  0  0  0
   28.7850   14.3290   23.2200 F   0  0  0  0  0  0  0  0  0  0  0  0
   27.2470   13.7270   20.6040 C   0  0  0  0  0  0  0  0  0  0  0  0
   25.6640   14.5030   20.3970 S   0  0  0  0  0  0  0  0  0  0  0  0
   25.6360   15.0340   19.0460 O   0  0  0  0  0  0  0  0  0  0  0  0
   25.2830   15.2430   21.5600 O   0  0  0  0  0  0  0  0  0  0  0  0
   22.6011   13.5504   20.8652 H   0  0  0  0  0  0  0  0  0  0  0  0
   23.2391   14.3350   19.3806 H   0  0  0  0  0  0  0  0  0  0  0  0
   22.8731   12.5764   19.3806 H   0  0  0  0  0  0  0  0  0  0  0  0
   24.4760    9.8890   20.3920 H   0  0  0  0  0  0  0  0  0  0  0  0
   23.3570   11.0740   19.8900 H   0  0  0  0  0  0  0  0  0  0  0  0
   28.8482   11.7680   22.6877 H   0  0  0  0  0  0  0  0  0  0  0  0
   28.4677   10.9541   21.1323 H   0  0  0  0  0  0  0  0  0  0  0  0
   29.2724   12.5601   21.1323 H   0  0  0  0  0  0  0  0  0  0  0  0
   24.9407   11.9932   23.0773 H   0  0  0  0  0  0  0  0  0  0  0  0
   23.7710   11.6750   25.0590 H   0  0  0  0  0  0  0  0  0  0  0  0
   22.5290   11.2485   28.1398 H   0  0  0  0  0  0  0  0  0  0  0  0
   20.2692   10.1823   28.3328 H   0  0  0  0  0  0  0  0  0  0  0  0
   18.9222   12.5890   25.0667 H   0  0  0  0  0  0  0  0  0  0  0  0
   25.8743   14.1325   26.6892 H   0  0  0  0  0  0  0  0  0  0  0  0
   28.0098   14.8836   25.6457 H   0  0  0  0  0  0  0  0  0  0  0  0
   27.9746   14.4769   20.9479 H   0  0  0  0  0  0  0  0  0  0  0  0
   27.5625   13.3039   19.6389 H   0  0  0  0  0  0  0  0  0  0  0  0
  1  2  1  0
  2  3  1  0
  3  4  1  0
  3  5  2  0
  5  6  1  0
  6  7  1  1
  6  8  1  0
  8  9  2  0
  9 10  1  0
 10 11  1  0
 11 12  1  0
 12 13  2  0
 12 14  1  0
 14 15  2  0
 15 16  1  0
 16 17  2  0
 17 18  1  0
 17 19  1  0
 19 20  2  0
 10 21  2  0
 21 22  1  0
 22 23  2  0
 23 24  1  0
  6 25  1  0
 25 26  1  0
 26 27  2  0
 26 28  2  0
 26  2  1  0
 23  8  1  0
 20 14  1  0
  1 29  1  0
  1 30  1  0
  1 31  1  0
  4 32  1  0
  4 33  1  0
  7 34  1  0
  7 35  1  0
  7 36  1  0
  9 37  1  0
 11 38  1  0
 15 39  1  0
 16 40  1  0
 19 41  1  0
 21 42  1  0
 22 43  1  0
 25 44  1  0
 25 45  1  0
M  END
>  <meeko>  (7)
{"is_sidechain": false}

>  <source_group>  (7)
BACE1-476

>  <source_system>  (7)
BACE1_verubecestat

>  <source_run>  (7)
alternate_476_seed3301_ex32

>  <source_seed>  (7)
3301

>  <vina_pose_rank>  (7)
7

>  <vina_affinity_kcal_mol>  (7)
-8.2200000000000006

>  <vina_rmsd_to_crystal_angstrom>  (7)
7.9076000000000004

$$$$
BACE1_verubecestat__alternate_476_seed3301_ex32__pose08
     RDKit          3D

 45 47  0  0  0  0  0  0  0  0999 V2000
   28.8550   17.0010   24.9220 C   0  0  0  0  0  0  0  0  0  0  0  0
   28.6730   15.7220   24.2080 N   0  0  0  0  0  0  0  0  0  0  0  0
   28.9740   15.5550   22.8380 C   0  0  0  0  0  0  0  0  0  0  0  0
   29.5910   16.6380   22.2700 N   0  0  0  0  0  0  0  0  0  0  0  0
   28.7200   14.4730   22.1690 N   0  0  0  0  0  0  0  0  0  0  0  0
   27.9770   13.3620   22.7610 C   0  0  2  0  0  0  0  0  0  0  0  0
   28.3240   12.1890   21.8400 C   0  0  0  0  0  0  0  0  0  0  0  0
   26.4740   13.5930   22.7170 C   0  0  0  0  0  0  0  0  0  0  0  0
   25.6300   13.0230   23.6680 C   0  0  0  0  0  0  0  0  0  0  0  0
   24.2670   13.2120   23.6510 C   0  0  0  0  0  0  0  0  0  0  0  0
   23.5330   12.5850   24.6670 N   0  0  0  0  0  0  0  0  0  0  0  0
   23.2810   13.0410   25.9480 C   0  0  0  0  0  0  0  0  0  0  0  0
   23.7820   14.0380   26.4530 O   0  0  0  0  0  0  0  0  0  0  0  0
   22.2940   12.2480   26.7200 C   0  0  0  0  0  0  0  0  0  0  0  0
   21.1000   11.8680   26.1310 C   0  0  0  0  0  0  0  0  0  0  0  0
   20.2150   11.1300   26.8980 C   0  0  0  0  0  0  0  0  0  0  0  0
   20.5430   10.7990   28.1980 C   0  0  0  0  0  0  0  0  0  0  0  0
   19.7120   10.0920   28.9840 F   0  0  0  0  0  0  0  0  0  0  0  0
   21.7520   11.2270   28.6980 C   0  0  0  0  0  0  0  0  0  0  0  0
   22.6280   11.9490   27.9800 N   0  0  0  0  0  0  0  0  0  0  0  0
   23.6800   14.0110   22.6780 C   0  0  0  0  0  0  0  0  0  0  0  0
   24.5020   14.5820   21.7230 C   0  0  0  0  0  0  0  0  0  0  0  0
   25.8640   14.3570   21.7340 C   0  0  0  0  0  0  0  0  0  0  0  0
   26.6460   14.9060   20.7680 F   0  0  0  0  0  0  0  0  0  0  0  0
   28.5340   13.0330   24.1280 C   0  0  0  0  0  0  0  0  0  0  0  0
   28.3060   14.3960   25.2420 S   0  0  0  0  0  0  0  0  0  0  0  0
   29.3720   14.3090   26.2250 O   0  0  0  0  0  0  0  0  0  0  0  0
   26.9270   14.5860   25.5670 O   0  0  0  0  0  0  0  0  0  0  0  0
   28.8295   16.8221   26.0070 H   0  0  0  0  0  0  0  0  0  0  0  0
   29.8247   17.4405   24.6455 H   0  0  0  0  0  0  0  0  0  0  0  0
   28.0464   17.6936   24.6455 H   0  0  0  0  0  0  0  0  0  0  0  0
   29.8420   16.6170   21.3180 H   0  0  0  0  0  0  0  0  0  0  0  0
   29.7850   17.4360   22.8130 H   0  0  0  0  0  0  0  0  0  0  0  0
   28.5840   11.3099   22.4480 H   0  0  0  0  0  0  0  0  0  0  0  0
   27.4574   11.9524   21.2052 H   0  0  0  0  0  0  0  0  0  0  0  0
   29.1799   12.4620   21.2052 H   0  0  0  0  0  0  0  0  0  0  0  0
   26.0690   12.3995   24.4608 H   0  0  0  0  0  0  0  0  0  0  0  0
   23.1470   11.7080   24.4390 H   0  0  0  0  0  0  0  0  0  0  0  0
   20.8635   12.1423   25.0923 H   0  0  0  0  0  0  0  0  0  0  0  0
   19.2528   10.8080   26.4731 H   0  0  0  0  0  0  0  0  0  0  0  0
   22.0130   10.9655   29.7341 H   0  0  0  0  0  0  0  0  0  0  0  0
   22.5938   14.1845   22.6672 H   0  0  0  0  0  0  0  0  0  0  0  0
   24.0644   15.2240   20.9443 H   0  0  0  0  0  0  0  0  0  0  0  0
   28.0140   12.1495   24.5269 H   0  0  0  0  0  0  0  0  0  0  0  0
   29.6109   12.8305   24.0321 H   0  0  0  0  0  0  0  0  0  0  0  0
  1  2  1  0
  2  3  1  0
  3  4  1  0
  3  5  2  0
  5  6  1  0
  6  7  1  6
  6  8  1  0
  8  9  2  0
  9 10  1  0
 10 11  1  0
 11 12  1  0
 12 13  2  0
 12 14  1  0
 14 15  2  0
 15 16  1  0
 16 17  2  0
 17 18  1  0
 17 19  1  0
 19 20  2  0
 10 21  2  0
 21 22  1  0
 22 23  2  0
 23 24  1  0
  6 25  1  0
 25 26  1  0
 26 27  2  0
 26 28  2  0
 26  2  1  0
 23  8  1  0
 20 14  1  0
  1 29  1  0
  1 30  1  0
  1 31  1  0
  4 32  1  0
  4 33  1  0
  7 34  1  0
  7 35  1  0
  7 36  1  0
  9 37  1  0
 11 38  1  0
 15 39  1  0
 16 40  1  0
 19 41  1  0
 21 42  1  0
 22 43  1  0
 25 44  1  0
 25 45  1  0
M  END
>  <meeko>  (8)
{"is_sidechain": false}

>  <source_group>  (8)
BACE1-476

>  <source_system>  (8)
BACE1_verubecestat

>  <source_run>  (8)
alternate_476_seed3301_ex32

>  <source_seed>  (8)
3301

>  <vina_pose_rank>  (8)
8

>  <vina_affinity_kcal_mol>  (8)
-8.1460000000000008

>  <vina_rmsd_to_crystal_angstrom>  (8)
8.2113999999999994

$$$$
BACE1_verubecestat__alternate_476_seed3301_ex32__pose09
     RDKit          3D

 45 47  0  0  0  0  0  0  0  0999 V2000
   25.9090   16.3910   20.7910 C   0  0  0  0  0  0  0  0  0  0  0  0
   26.4000   14.9990   20.8330 N   0  0  0  0  0  0  0  0  0  0  0  0
   26.6780   14.2450   19.6720 C   0  0  0  0  0  0  0  0  0  0  0  0
   26.5980   14.9650   18.5100 N   0  0  0  0  0  0  0  0  0  0  0  0
   27.0050   12.9900   19.6870 N   0  0  0  0  0  0  0  0  0  0  0  0
   26.9940   12.2090   20.9230 C   0  0  2  0  0  0  0  0  0  0  0  0
   27.8660   11.0000   20.5730 C   0  0  0  0  0  0  0  0  0  0  0  0
   25.5980   11.7200   21.2770 C   0  0  0  0  0  0  0  0  0  0  0  0
   25.0980   11.8470   22.5720 C   0  0  0  0  0  0  0  0  0  0  0  0
   23.8400   11.4110   22.9220 C   0  0  0  0  0  0  0  0  0  0  0  0
   23.4580   11.6000   24.2570 N   0  0  0  0  0  0  0  0  0  0  0  0
   22.6310   12.5770   24.7810 C   0  0  0  0  0  0  0  0  0  0  0  0
   22.1910   13.5360   24.1600 O   0  0  0  0  0  0  0  0  0  0  0  0
   22.2480   12.3870   26.2010 C   0  0  0  0  0  0  0  0  0  0  0  0
   21.6020   11.2270   26.5930 C   0  0  0  0  0  0  0  0  0  0  0  0
   21.2660   11.1030   27.9300 C   0  0  0  0  0  0  0  0  0  0  0  0
   21.5810   12.1160   28.8150 C   0  0  0  0  0  0  0  0  0  0  0  0
   21.2660   12.0440   30.1200 F   0  0  0  0  0  0  0  0  0  0  0  0
   22.2190   13.2340   28.3290 C   0  0  0  0  0  0  0  0  0  0  0  0
   22.5530   13.3860   27.0370 N   0  0  0  0  0  0  0  0  0  0  0  0
   23.0040   10.8400   21.9710 C   0  0  0  0  0  0  0  0  0  0  0  0
   23.4850   10.7040   20.6800 C   0  0  0  0  0  0  0  0  0  0  0  0
   24.7610   11.1160   20.3520 C   0  0  0  0  0  0  0  0  0  0  0  0
   25.2200   10.9430   19.0850 F   0  0  0  0  0  0  0  0  0  0  0  0
   27.7060   12.9650   22.0220 C   0  0  0  0  0  0  0  0  0  0  0  0
   26.8440   14.4680   22.4100 S   0  0  0  0  0  0  0  0  0  0  0  0
   27.8380   15.3980   22.9130 O   0  0  0  0  0  0  0  0  0  0  0  0
   25.5910   14.2070   23.0480 O   0  0  0  0  0  0  0  0  0  0  0  0
   25.7773   16.7645   21.8172 H   0  0  0  0  0  0  0  0  0  0  0  0
   26.6390   17.0215   20.2622 H   0  0  0  0  0  0  0  0  0  0  0  0
   24.9450   16.4240   20.2622 H   0  0  0  0  0  0  0  0  0  0  0  0
   26.7750   14.5270   17.6460 H   0  0  0  0  0  0  0  0  0  0  0  0
   26.3650   15.9210   18.5380 H   0  0  0  0  0  0  0  0  0  0  0  0
   28.2135   10.5182   21.4988 H   0  0  0  0  0  0  0  0  0  0  0  0
   27.2770   10.2812   19.9844 H   0  0  0  0  0  0  0  0  0  0  0  0
   28.7339   11.3320   19.9844 H   0  0  0  0  0  0  0  0  0  0  0  0
   25.7313   12.3122   23.3418 H   0  0  0  0  0  0  0  0  0  0  0  0
   23.8260   10.9550   24.9030 H   0  0  0  0  0  0  0  0  0  0  0  0
   21.3646   10.4336   25.8690 H   0  0  0  0  0  0  0  0  0  0  0  0
   20.7493   10.1999   28.2871 H   0  0  0  0  0  0  0  0  0  0  0  0
   22.4675   14.0423   29.0325 H   0  0  0  0  0  0  0  0  0  0  0  0
   21.9900   10.5058   22.2358 H   0  0  0  0  0  0  0  0  0  0  0  0
   22.8417   10.2616   19.9051 H   0  0  0  0  0  0  0  0  0  0  0  0
   27.7543   12.3339   22.9216 H   0  0  0  0  0  0  0  0  0  0  0  0
   28.7199   13.2175   21.6780 H   0  0  0  0  0  0  0  0  0  0  0  0
  1  2  1  0
  2  3  1  0
  3  4  1  0
  3  5  2  0
  5  6  1  0
  6  7  1  6
  6  8  1  0
  8  9  2  0
  9 10  1  0
 10 11  1  0
 11 12  1  0
 12 13  2  0
 12 14  1  0
 14 15  2  0
 15 16  1  0
 16 17  2  0
 17 18  1  0
 17 19  1  0
 19 20  2  0
 10 21  2  0
 21 22  1  0
 22 23  2  0
 23 24  1  0
  6 25  1  0
 25 26  1  0
 26 27  2  0
 26 28  2  0
 26  2  1  0
 23  8  1  0
 20 14  1  0
  1 29  1  0
  1 30  1  0
  1 31  1  0
  4 32  1  0
  4 33  1  0
  7 34  1  0
  7 35  1  0
  7 36  1  0
  9 37  1  0
 11 38  1  0
 15 39  1  0
 16 40  1  0
 19 41  1  0
 21 42  1  0
 22 43  1  0
 25 44  1  0
 25 45  1  0
M  END
>  <meeko>  (9)
{"is_sidechain": false}

>  <source_group>  (9)
BACE1-476

>  <source_system>  (9)
BACE1_verubecestat

>  <source_run>  (9)
alternate_476_seed3301_ex32

>  <source_seed>  (9)
3301

>  <vina_pose_rank>  (9)
9

>  <vina_affinity_kcal_mol>  (9)
-7.9359999999999999

>  <vina_rmsd_to_crystal_angstrom>  (9)
7.3213999999999997

$$$$
BACE1_verubecestat__alternate_476_seed3301_ex32__pose10
     RDKit          3D

 45 47  0  0  0  0  0  0  0  0999 V2000
   22.5610   11.5770   23.6620 C   0  0  0  0  0  0  0  0  0  0  0  0
   22.1690   11.2610   25.0490 N   0  0  0  0  0  0  0  0  0  0  0  0
   21.7610    9.9730   25.4610 C   0  0  0  0  0  0  0  0  0  0  0  0
   21.9070    9.0110   24.4970 N   0  0  0  0  0  0  0  0  0  0  0  0
   21.3110    9.7020   26.6470 N   0  0  0  0  0  0  0  0  0  0  0  0
   21.0710   10.7530   27.6350 C   0  0  2  0  0  0  0  0  0  0  0  0
   21.0230    9.9780   28.9550 C   0  0  0  0  0  0  0  0  0  0  0  0
   19.7330   11.4420   27.4210 C   0  0  0  0  0  0  0  0  0  0  0  0
   18.7750   10.9050   26.5630 C   0  0  0  0  0  0  0  0  0  0  0  0
   17.5570   11.5090   26.3480 C   0  0  0  0  0  0  0  0  0  0  0  0
   16.6840   10.8630   25.4620 N   0  0  0  0  0  0  0  0  0  0  0  0
   15.5630   11.3790   24.8360 C   0  0  0  0  0  0  0  0  0  0  0  0
   15.0720   12.4770   25.0620 O   0  0  0  0  0  0  0  0  0  0  0  0
   14.9670   10.5110   23.7910 C   0  0  0  0  0  0  0  0  0  0  0  0
   13.7760   10.8760   23.1870 C   0  0  0  0  0  0  0  0  0  0  0  0
   13.2640   10.0290   22.2200 C   0  0  0  0  0  0  0  0  0  0  0  0
   13.9430    8.8710   21.8900 C   0  0  0  0  0  0  0  0  0  0  0  0
   13.4790    8.0140   20.9650 F   0  0  0  0  0  0  0  0  0  0  0  0
   15.1170    8.5920   22.5510 C   0  0  0  0  0  0  0  0  0  0  0  0
   15.6360    9.3910   23.4970 N   0  0  0  0  0  0  0  0  0  0  0  0
   17.2280   12.6840   27.0110 C   0  0  0  0  0  0  0  0  0  0  0  0
   18.1680   13.2340   27.8640 C   0  0  0  0  0  0  0  0  0  0  0  0
   19.3990   12.6340   28.0450 C   0  0  0  0  0  0  0  0  0  0  0  0
   20.3150   13.2100   28.8660 F   0  0  0  0  0  0  0  0  0  0  0  0
   22.2650   11.6790   27.7090 C   0  0  0  0  0  0  0  0  0  0  0  0
   22.4950   12.5290   26.1680 S   0  0  0  0  0  0  0  0  0  0  0  0
   23.9110   12.8350   26.0710 O   0  0  0  0  0  0  0  0  0  0  0  0
   21.4500   13.4750   25.9260 O   0  0  0  0  0  0  0  0  0  0  0  0
   23.4174   12.2673   23.6712 H   0  0  0  0  0  0  0  0  0  0  0  0
   22.8426   10.6504   23.1404 H   0  0  0  0  0  0  0  0  0  0  0  0
   21.7153   12.0489   23.1404 H   0  0  0  0  0  0  0  0  0  0  0  0
   21.6500    8.0800   24.6890 H   0  0  0  0  0  0  0  0  0  0  0  0
   22.2690    9.2490   23.6130 H   0  0  0  0  0  0  0  0  0  0  0  0
   21.0668   10.6846   29.7969 H   0  0  0  0  0  0  0  0  0  0  0  0
   20.0875    9.4019   29.0081 H   0  0  0  0  0  0  0  0  0  0  0  0
   21.8803    9.2908   29.0081 H   0  0  0  0  0  0  0  0  0  0  0  0
   19.0004    9.9646   26.0387 H   0  0  0  0  0  0  0  0  0  0  0  0
   16.8950    9.9230   25.2600 H   0  0  0  0  0  0  0  0  0  0  0  0
   13.2562   11.8046   23.4654 H   0  0  0  0  0  0  0  0  0  0  0  0
   12.3187   10.2766   21.7149 H   0  0  0  0  0  0  0  0  0  0  0  0
   15.6568    7.6693   22.2918 H   0  0  0  0  0  0  0  0  0  0  0  0
   16.2491   13.1631   26.8623 H   0  0  0  0  0  0  0  0  0  0  0  0
   17.9319   14.1619   28.4056 H   0  0  0  0  0  0  0  0  0  0  0  0
   22.1006   12.4173   28.5077 H   0  0  0  0  0  0  0  0  0  0  0  0
   23.1638   11.0814   27.9212 H   0  0  0  0  0  0  0  0  0  0  0  0
  1  2  1  0
  2  3  1  0
  3  4  1  0
  3  5  2  0
  5  6  1  0
  6  7  1  1
  6  8  1  0
  8  9  2  0
  9 10  1  0
 10 11  1  0
 11 12  1  0
 12 13  2  0
 12 14  1  0
 14 15  2  0
 15 16  1  0
 16 17  2  0
 17 18  1  0
 17 19  1  0
 19 20  2  0
 10 21  2  0
 21 22  1  0
 22 23  2  0
 23 24  1  0
  6 25  1  0
 25 26  1  0
 26 27  2  0
 26 28  2  0
 26  2  1  0
 23  8  1  0
 20 14  1  0
  1 29  1  0
  1 30  1  0
  1 31  1  0
  4 32  1  0
  4 33  1  0
  7 34  1  0
  7 35  1  0
  7 36  1  0
  9 37  1  0
 11 38  1  0
 15 39  1  0
 16 40  1  0
 19 41  1  0
 21 42  1  0
 22 43  1  0
 25 44  1  0
 25 45  1  0
M  END
>  <meeko>  (10)
{"is_sidechain": false}

>  <source_group>  (10)
BACE1-476

>  <source_system>  (10)
BACE1_verubecestat

>  <source_run>  (10)
alternate_476_seed3301_ex32

>  <source_seed>  (10)
3301

>  <vina_pose_rank>  (10)
10

>  <vina_affinity_kcal_mol>  (10)
-7.6879999999999997

>  <vina_rmsd_to_crystal_angstrom>  (10)
10.4925

$$$$
BACE1_verubecestat__alternate_476_seed3301_ex32__pose11
     RDKit          3D

 45 47  0  0  0  0  0  0  0  0999 V2000
   25.1340    9.8410   20.7770 C   0  0  0  0  0  0  0  0  0  0  0  0
   25.2590   11.3100   20.8560 N   0  0  0  0  0  0  0  0  0  0  0  0
   26.4010   12.0110   20.4080 C   0  0  0  0  0  0  0  0  0  0  0  0
   27.3140   11.2260   19.7560 N   0  0  0  0  0  0  0  0  0  0  0  0
   26.5740   13.2870   20.5680 N   0  0  0  0  0  0  0  0  0  0  0  0
   25.6390   14.0970   21.3470 C   0  0  2  0  0  0  0  0  0  0  0  0
   25.9480   15.5220   20.8810 C   0  0  0  0  0  0  0  0  0  0  0  0
   25.9070   14.0000   22.8410 C   0  0  0  0  0  0  0  0  0  0  0  0
   24.8590   13.9350   23.7580 C   0  0  0  0  0  0  0  0  0  0  0  0
   25.0730   13.8500   25.1150 C   0  0  0  0  0  0  0  0  0  0  0  0
   23.9330   13.7890   25.9270 N   0  0  0  0  0  0  0  0  0  0  0  0
   23.2110   12.6720   26.3090 C   0  0  0  0  0  0  0  0  0  0  0  0
   23.3870   11.5400   25.8800 O   0  0  0  0  0  0  0  0  0  0  0  0
   22.1780   12.9100   27.3460 C   0  0  0  0  0  0  0  0  0  0  0  0
   22.4990   13.6170   28.4920 C   0  0  0  0  0  0  0  0  0  0  0  0
   21.4980   13.8070   29.4280 C   0  0  0  0  0  0  0  0  0  0  0  0
   20.2340   13.3010   29.1950 C   0  0  0  0  0  0  0  0  0  0  0  0
   19.2320   13.4520   30.0790 F   0  0  0  0  0  0  0  0  0  0  0  0
   20.0130   12.6050   28.0280 C   0  0  0  0  0  0  0  0  0  0  0  0
   20.9660   12.4000   27.1040 N   0  0  0  0  0  0  0  0  0  0  0  0
   26.3650   13.8030   25.6220 C   0  0  0  0  0  0  0  0  0  0  0  0
   27.4180   13.8690   24.7270 C   0  0  0  0  0  0  0  0  0  0  0  0
   27.1880   13.9870   23.3700 C   0  0  0  0  0  0  0  0  0  0  0  0
   28.2390   14.0800   22.5150 F   0  0  0  0  0  0  0  0  0  0  0  0
   24.2170   13.7930   20.9310 C   0  0  0  0  0  0  0  0  0  0  0  0
   23.8010   12.1080   21.3030 S   0  0  0  0  0  0  0  0  0  0  0  0
   22.7830   11.7110   20.3460 O   0  0  0  0  0  0  0  0  0  0  0  0
   23.7080   11.8870   22.7130 O   0  0  0  0  0  0  0  0  0  0  0  0
   25.0983    9.4209   21.7930 H   0  0  0  0  0  0  0  0  0  0  0  0
   24.2104    9.5800   20.2396 H   0  0  0  0  0  0  0  0  0  0  0  0
   26.0002    9.4277   20.2396 H   0  0  0  0  0  0  0  0  0  0  0  0
   28.1440   11.6240   19.4060 H   0  0  0  0  0  0  0  0  0  0  0  0
   27.1410   10.2640   19.6380 H   0  0  0  0  0  0  0  0  0  0  0  0
   26.0889   16.1719   21.7572 H   0  0  0  0  0  0  0  0  0  0  0  0
   26.8663   15.5187   20.2754 H   0  0  0  0  0  0  0  0  0  0  0  0
   25.1108   15.8994   20.2754 H   0  0  0  0  0  0  0  0  0  0  0  0
   23.8247   13.9522   23.3839 H   0  0  0  0  0  0  0  0  0  0  0  0
   23.6040   14.6510   26.2710 H   0  0  0  0  0  0  0  0  0  0  0  0
   23.5126   14.0131   28.6526 H   0  0  0  0  0  0  0  0  0  0  0  0
   21.7082   14.3597   30.3555 H   0  0  0  0  0  0  0  0  0  0  0  0
   19.0081   12.1974   27.8435 H   0  0  0  0  0  0  0  0  0  0  0  0
   26.5459   13.7158   26.7035 H   0  0  0  0  0  0  0  0  0  0  0  0
   28.4517   13.8270   25.1008 H   0  0  0  0  0  0  0  0  0  0  0  0
   23.5316   14.4620   21.4720 H   0  0  0  0  0  0  0  0  0  0  0  0
   24.1250   13.9487   19.8460 H   0  0  0  0  0  0  0  0  0  0  0  0
  1  2  1  0
  2  3  1  0
  3  4  1  0
  3  5  2  0
  5  6  1  0
  6  7  1  6
  6  8  1  0
  8  9  2  0
  9 10  1  0
 10 11  1  0
 11 12  1  0
 12 13  2  0
 12 14  1  0
 14 15  2  0
 15 16  1  0
 16 17  2  0
 17 18  1  0
 17 19  1  0
 19 20  2  0
 10 21  2  0
 21 22  1  0
 22 23  2  0
 23 24  1  0
  6 25  1  0
 25 26  1  0
 26 27  2  0
 26 28  2  0
 26  2  1  0
 23  8  1  0
 20 14  1  0
  1 29  1  0
  1 30  1  0
  1 31  1  0
  4 32  1  0
  4 33  1  0
  7 34  1  0
  7 35  1  0
  7 36  1  0
  9 37  1  0
 11 38  1  0
 15 39  1  0
 16 40  1  0
 19 41  1  0
 21 42  1  0
 22 43  1  0
 25 44  1  0
 25 45  1  0
M  END
>  <meeko>  (11)
{"is_sidechain": false}

>  <source_group>  (11)
BACE1-476

>  <source_system>  (11)
BACE1_verubecestat

>  <source_run>  (11)
alternate_476_seed3301_ex32

>  <source_seed>  (11)
3301

>  <vina_pose_rank>  (11)
11

>  <vina_affinity_kcal_mol>  (11)
-7.5259999999999998

>  <vina_rmsd_to_crystal_angstrom>  (11)
7.9364999999999997

$$$$
BACE1_verubecestat__alternate_476_seed3301_ex32__pose12
     RDKit          3D

 45 47  0  0  0  0  0  0  0  0999 V2000
   22.8190   10.3830   23.8270 C   0  0  0  0  0  0  0  0  0  0  0  0
   23.3320   11.2870   22.7780 N   0  0  0  0  0  0  0  0  0  0  0  0
   23.4660   10.9000   21.4260 C   0  0  0  0  0  0  0  0  0  0  0  0
   22.9370    9.6680   21.1460 N   0  0  0  0  0  0  0  0  0  0  0  0
   24.0140   11.6420   20.5140 N   0  0  0  0  0  0  0  0  0  0  0  0
   24.6590   12.9120   20.8420 C   0  0  2  0  0  0  0  0  0  0  0  0
   24.7190   13.6260   19.4890 C   0  0  0  0  0  0  0  0  0  0  0  0
   26.0760   12.7160   21.3570 C   0  0  0  0  0  0  0  0  0  0  0  0
   26.5900   13.5190   22.3740 C   0  0  0  0  0  0  0  0  0  0  0  0
   27.8700   13.3660   22.8580 C   0  0  0  0  0  0  0  0  0  0  0  0
   28.2620   14.2370   23.8830 N   0  0  0  0  0  0  0  0  0  0  0  0
   29.1410   15.3020   23.8130 C   0  0  0  0  0  0  0  0  0  0  0  0
   29.8330   15.5820   22.8420 O   0  0  0  0  0  0  0  0  0  0  0  0
   29.1890   16.1640   25.0190 C   0  0  0  0  0  0  0  0  0  0  0  0
   28.9310   15.6230   26.2660 C   0  0  0  0  0  0  0  0  0  0  0  0
   28.9870   16.4730   27.3560 C   0  0  0  0  0  0  0  0  0  0  0  0
   29.2960   17.8070   27.1730 C   0  0  0  0  0  0  0  0  0  0  0  0
   29.3530   18.6720   28.2000 F   0  0  0  0  0  0  0  0  0  0  0  0
   29.5310   18.2540   25.8920 C   0  0  0  0  0  0  0  0  0  0  0  0
   29.4780   17.4540   24.8150 N   0  0  0  0  0  0  0  0  0  0  0  0
   28.6990   12.3720   22.3520 C   0  0  0  0  0  0  0  0  0  0  0  0
   28.2060   11.5680   21.3400 C   0  0  0  0  0  0  0  0  0  0  0  0
   26.9310   11.7540   20.8430 C   0  0  0  0  0  0  0  0  0  0  0  0
   26.4830   10.9700   19.8290 F   0  0  0  0  0  0  0  0  0  0  0  0
   23.7600   13.7340   21.7380 C   0  0  0  0  0  0  0  0  0  0  0  0
   23.5100   12.9190   23.2950 S   0  0  0  0  0  0  0  0  0  0  0  0
   22.2170   13.3570   23.7890 O   0  0  0  0  0  0  0  0  0  0  0  0
   24.7060   12.9010   24.0790 O   0  0  0  0  0  0  0  0  0  0  0  0
   23.0552   10.7993   24.8174 H   0  0  0  0  0  0  0  0  0  0  0  0
   21.7287   10.2815   23.7225 H   0  0  0  0  0  0  0  0  0  0  0  0
   23.2910    9.3949   23.7225 H   0  0  0  0  0  0  0  0  0  0  0  0
   22.9810    9.3110   20.2300 H   0  0  0  0  0  0  0  0  0  0  0  0
   22.5120    9.1400   21.8600 H   0  0  0  0  0  0  0  0  0  0  0  0
   24.8101   14.7103   19.6503 H   0  0  0  0  0  0  0  0  0  0  0  0
   25.5900   13.2651   18.9223 H   0  0  0  0  0  0  0  0  0  0  0  0
   23.8000   13.4156   18.9223 H   0  0  0  0  0  0  0  0  0  0  0  0
   25.9501   14.3029   22.8053 H   0  0  0  0  0  0  0  0  0  0  0  0
   27.8600   14.0680   24.7660 H   0  0  0  0  0  0  0  0  0  0  0  0
   28.6902   14.5564   26.3863 H   0  0  0  0  0  0  0  0  0  0  0  0
   28.7859   16.0875   28.3664 H   0  0  0  0  0  0  0  0  0  0  0  0
   29.7736   19.3167   25.7440 H   0  0  0  0  0  0  0  0  0  0  0  0
   29.7166   12.2288   22.7444 H   0  0  0  0  0  0  0  0  0  0  0  0
   28.8385   10.7692   20.9253 H   0  0  0  0  0  0  0  0  0  0  0  0
   24.2256   14.7148   21.9146 H   0  0  0  0  0  0  0  0  0  0  0  0
   22.7853   13.8574   21.2432 H   0  0  0  0  0  0  0  0  0  0  0  0
  1  2  1  0
  2  3  1  0
  3  4  1  0
  3  5  2  0
  5  6  1  0
  6  7  1  6
  6  8  1  0
  8  9  2  0
  9 10  1  0
 10 11  1  0
 11 12  1  0
 12 13  2  0
 12 14  1  0
 14 15  2  0
 15 16  1  0
 16 17  2  0
 17 18  1  0
 17 19  1  0
 19 20  2  0
 10 21  2  0
 21 22  1  0
 22 23  2  0
 23 24  1  0
  6 25  1  0
 25 26  1  0
 26 27  2  0
 26 28  2  0
 26  2  1  0
 23  8  1  0
 20 14  1  0
  1 29  1  0
  1 30  1  0
  1 31  1  0
  4 32  1  0
  4 33  1  0
  7 34  1  0
  7 35  1  0
  7 36  1  0
  9 37  1  0
 11 38  1  0
 15 39  1  0
 16 40  1  0
 19 41  1  0
 21 42  1  0
 22 43  1  0
 25 44  1  0
 25 45  1  0
M  END
>  <meeko>  (12)
{"is_sidechain": false}

>  <source_group>  (12)
BACE1-476

>  <source_system>  (12)
BACE1_verubecestat

>  <source_run>  (12)
alternate_476_seed3301_ex32

>  <source_seed>  (12)
3301

>  <vina_pose_rank>  (12)
12

>  <vina_affinity_kcal_mol>  (12)
-7.4779999999999998

>  <vina_rmsd_to_crystal_angstrom>  (12)
5.9020000000000001

$$$$
BACE1_verubecestat__alternate_476_seed3301_ex32__pose13
     RDKit          3D

 45 47  0  0  0  0  0  0  0  0999 V2000
   27.1730   10.4370   20.5780 C   0  0  0  0  0  0  0  0  0  0  0  0
   25.9790   11.2900   20.4180 N   0  0  0  0  0  0  0  0  0  0  0  0
   25.9850   12.4910   19.6740 C   0  0  0  0  0  0  0  0  0  0  0  0
   27.1500   12.7150   18.9890 N   0  0  0  0  0  0  0  0  0  0  0  0
   24.9780   13.3070   19.6120 N   0  0  0  0  0  0  0  0  0  0  0  0
   23.7770   13.1060   20.4210 C   0  0  2  0  0  0  0  0  0  0  0  0
   22.7330   13.9670   19.7040 C   0  0  0  0  0  0  0  0  0  0  0  0
   23.9500   13.6260   21.8400 C   0  0  0  0  0  0  0  0  0  0  0  0
   23.1830   13.1240   22.8890 C   0  0  0  0  0  0  0  0  0  0  0  0
   23.3170   13.5770   24.1820 C   0  0  0  0  0  0  0  0  0  0  0  0
   22.4860   12.9870   25.1440 N   0  0  0  0  0  0  0  0  0  0  0  0
   22.7060   11.8310   25.8720 C   0  0  0  0  0  0  0  0  0  0  0  0
   23.6310   11.0500   25.6920 O   0  0  0  0  0  0  0  0  0  0  0  0
   21.7370   11.5790   26.9660 C   0  0  0  0  0  0  0  0  0  0  0  0
   21.9920   12.0600   28.2390 C   0  0  0  0  0  0  0  0  0  0  0  0
   21.0560   11.7940   29.2220 C   0  0  0  0  0  0  0  0  0  0  0  0
   19.9170   11.0750   28.9120 C   0  0  0  0  0  0  0  0  0  0  0  0
   18.9850   10.7850   29.8350 F   0  0  0  0  0  0  0  0  0  0  0  0
   19.7550   10.6340   27.6180 C   0  0  0  0  0  0  0  0  0  0  0  0
   20.6490   10.8720   26.6440 N   0  0  0  0  0  0  0  0  0  0  0  0
   24.2550   14.5540   24.4910 C   0  0  0  0  0  0  0  0  0  0  0  0
   25.0230   15.0670   23.4610 C   0  0  0  0  0  0  0  0  0  0  0  0
   24.8560   14.6250   22.1630 C   0  0  0  0  0  0  0  0  0  0  0  0
   25.6020   15.1650   21.1660 F   0  0  0  0  0  0  0  0  0  0  0  0
   23.3140   11.6700   20.3170 C   0  0  0  0  0  0  0  0  0  0  0  0
   24.5280   10.5700   21.0000 S   0  0  0  0  0  0  0  0  0  0  0  0
   24.3720    9.3010   20.3110 O   0  0  0  0  0  0  0  0  0  0  0  0
   24.6240   10.7060   22.4200 O   0  0  0  0  0  0  0  0  0  0  0  0
   27.3781   10.2905   21.6487 H   0  0  0  0  0  0  0  0  0  0  0  0
   26.9932    9.4616   20.1023 H   0  0  0  0  0  0  0  0  0  0  0  0
   28.0374   10.9232   20.1023 H   0  0  0  0  0  0  0  0  0  0  0  0
   27.2500   13.5260   18.4410 H   0  0  0  0  0  0  0  0  0  0  0  0
   27.8860   12.0640   19.0450 H   0  0  0  0  0  0  0  0  0  0  0  0
   22.1085   14.4821   20.4487 H   0  0  0  0  0  0  0  0  0  0  0  0
   23.2418   14.7116   19.0741 H   0  0  0  0  0  0  0  0  0  0  0  0
   22.0989   13.3258   19.0741 H   0  0  0  0  0  0  0  0  0  0  0  0
   22.4439   12.3375   22.6765 H   0  0  0  0  0  0  0  0  0  0  0  0
   21.6390   13.4550   25.3240 H   0  0  0  0  0  0  0  0  0  0  0  0
   22.9049   12.6323   28.4604 H   0  0  0  0  0  0  0  0  0  0  0  0
   21.2178   12.1541   30.2487 H   0  0  0  0  0  0  0  0  0  0  0  0
   18.8504   10.0594   27.3698 H   0  0  0  0  0  0  0  0  0  0  0  0
   24.3833   14.9092   25.5241 H   0  0  0  0  0  0  0  0  0  0  0  0
   25.7772   15.8376   23.6787 H   0  0  0  0  0  0  0  0  0  0  0  0
   22.3698   11.5539   20.8693 H   0  0  0  0  0  0  0  0  0  0  0  0
   23.1677   11.4210   19.2556 H   0  0  0  0  0  0  0  0  0  0  0  0
  1  2  1  0
  2  3  1  0
  3  4  1  0
  3  5  2  0
  5  6  1  0
  6  7  1  6
  6  8  1  0
  8  9  2  0
  9 10  1  0
 10 11  1  0
 11 12  1  0
 12 13  2  0
 12 14  1  0
 14 15  2  0
 15 16  1  0
 16 17  2  0
 17 18  1  0
 17 19  1  0
 19 20  2  0
 10 21  2  0
 21 22  1  0
 22 23  2  0
 23 24  1  0
  6 25  1  0
 25 26  1  0
 26 27  2  0
 26 28  2  0
 26  2  1  0
 23  8  1  0
 20 14  1  0
  1 29  1  0
  1 30  1  0
  1 31  1  0
  4 32  1  0
  4 33  1  0
  7 34  1  0
  7 35  1  0
  7 36  1  0
  9 37  1  0
 11 38  1  0
 15 39  1  0
 16 40  1  0
 19 41  1  0
 21 42  1  0
 22 43  1  0
 25 44  1  0
 25 45  1  0
M  END
>  <meeko>  (13)
{"is_sidechain": false}

>  <source_group>  (13)
BACE1-476

>  <source_system>  (13)
BACE1_verubecestat

>  <source_run>  (13)
alternate_476_seed3301_ex32

>  <source_seed>  (13)
3301

>  <vina_pose_rank>  (13)
13

>  <vina_affinity_kcal_mol>  (13)
-7.468

>  <vina_rmsd_to_crystal_angstrom>  (13)
7.5331000000000001

$$$$
BACE1_verubecestat__alternate_476_seed3301_ex32__pose14
     RDKit          3D

 45 47  0  0  0  0  0  0  0  0999 V2000
   28.8900   10.1650   21.7120 C   0  0  0  0  0  0  0  0  0  0  0  0
   28.4550   11.5730   21.6320 N   0  0  0  0  0  0  0  0  0  0  0  0
   29.3400   12.6630   21.7860 C   0  0  0  0  0  0  0  0  0  0  0  0
   30.6580   12.3010   21.8650 N   0  0  0  0  0  0  0  0  0  0  0  0
   28.9590   13.9030   21.8270 N   0  0  0  0  0  0  0  0  0  0  0  0
   27.5440   14.2710   21.8390 C   0  0  2  0  0  0  0  0  0  0  0  0
   27.5700   15.7430   21.4160 C   0  0  0  0  0  0  0  0  0  0  0  0
   26.9390   14.1700   23.2300 C   0  0  0  0  0  0  0  0  0  0  0  0
   25.6170   13.7680   23.4130 C   0  0  0  0  0  0  0  0  0  0  0  0
   25.0420   13.6710   24.6600 C   0  0  0  0  0  0  0  0  0  0  0  0
   23.7060   13.2530   24.7040 N   0  0  0  0  0  0  0  0  0  0  0  0
   23.2090   12.0020   25.0270 C   0  0  0  0  0  0  0  0  0  0  0  0
   23.8880   11.0000   25.2060 O   0  0  0  0  0  0  0  0  0  0  0  0
   21.7370   11.9290   25.1910 C   0  0  0  0  0  0  0  0  0  0  0  0
   21.1280   10.7090   25.4280 C   0  0  0  0  0  0  0  0  0  0  0  0
   19.7520   10.6980   25.5710 C   0  0  0  0  0  0  0  0  0  0  0  0
   19.0410   11.8790   25.4790 C   0  0  0  0  0  0  0  0  0  0  0  0
   17.7040   11.9170   25.6020 F   0  0  0  0  0  0  0  0  0  0  0  0
   19.7360   13.0420   25.2350 C   0  0  0  0  0  0  0  0  0  0  0  0
   21.0700   13.0830   25.0860 N   0  0  0  0  0  0  0  0  0  0  0  0
   25.7840   13.9540   25.8000 C   0  0  0  0  0  0  0  0  0  0  0  0
   27.0980   14.3570   25.6370 C   0  0  0  0  0  0  0  0  0  0  0  0
   27.6510   14.4820   24.3780 C   0  0  0  0  0  0  0  0  0  0  0  0
   28.9330   14.9080   24.2450 F   0  0  0  0  0  0  0  0  0  0  0  0
   26.8020   13.5130   20.7600 C   0  0  0  0  0  0  0  0  0  0  0  0
   26.8340   11.7680   21.0840 S   0  0  0  0  0  0  0  0  0  0  0  0
   26.7330   11.1060   19.7960 O   0  0  0  0  0  0  0  0  0  0  0  0
   26.0440   11.4290   22.2270 O   0  0  0  0  0  0  0  0  0  0  0  0
   28.9815    9.8689   22.7674 H   0  0  0  0  0  0  0  0  0  0  0  0
   28.1482    9.5232   21.2141 H   0  0  0  0  0  0  0  0  0  0  0  0
   29.8645   10.0534   21.2141 H   0  0  0  0  0  0  0  0  0  0  0  0
   31.3530   12.9910   21.9730 H   0  0  0  0  0  0  0  0  0  0  0  0
   30.9120   11.3510   21.8120 H   0  0  0  0  0  0  0  0  0  0  0  0
   27.5813   16.3817   22.3115 H   0  0  0  0  0  0  0  0  0  0  0  0
   28.4717   15.9363   20.8164 H   0  0  0  0  0  0  0  0  0  0  0  0
   26.6757   15.9680   20.8164 H   0  0  0  0  0  0  0  0  0  0  0  0
   25.0113   13.5193   22.5291 H   0  0  0  0  0  0  0  0  0  0  0  0
   23.0350   13.9360   24.4770 H   0  0  0  0  0  0  0  0  0  0  0  0
   21.7163    9.7823   25.5000 H   0  0  0  0  0  0  0  0  0  0  0  0
   19.2250    9.7507   25.7576 H   0  0  0  0  0  0  0  0  0  0  0  0
   19.1715   13.9830   25.1584 H   0  0  0  0  0  0  0  0  0  0  0  0
   25.3404   13.8606   26.8022 H   0  0  0  0  0  0  0  0  0  0  0  0
   27.7104   14.5809   26.5229 H   0  0  0  0  0  0  0  0  0  0  0  0
   25.7572   13.8558   20.7313 H   0  0  0  0  0  0  0  0  0  0  0  0
   27.2925   13.7023   19.7938 H   0  0  0  0  0  0  0  0  0  0  0  0
  1  2  1  0
  2  3  1  0
  3  4  1  0
  3  5  2  0
  5  6  1  0
  6  7  1  6
  6  8  1  0
  8  9  2  0
  9 10  1  0
 10 11  1  0
 11 12  1  0
 12 13  2  0
 12 14  1  0
 14 15  2  0
 15 16  1  0
 16 17  2  0
 17 18  1  0
 17 19  1  0
 19 20  2  0
 10 21  2  0
 21 22  1  0
 22 23  2  0
 23 24  1  0
  6 25  1  0
 25 26  1  0
 26 27  2  0
 26 28  2  0
 26  2  1  0
 23  8  1  0
 20 14  1  0
  1 29  1  0
  1 30  1  0
  1 31  1  0
  4 32  1  0
  4 33  1  0
  7 34  1  0
  7 35  1  0
  7 36  1  0
  9 37  1  0
 11 38  1  0
 15 39  1  0
 16 40  1  0
 19 41  1  0
 21 42  1  0
 22 43  1  0
 25 44  1  0
 25 45  1  0
M  END
>  <meeko>  (14)
{"is_sidechain": false}

>  <source_group>  (14)
BACE1-476

>  <source_system>  (14)
BACE1_verubecestat

>  <source_run>  (14)
alternate_476_seed3301_ex32

>  <source_seed>  (14)
3301

>  <vina_pose_rank>  (14)
14

>  <vina_affinity_kcal_mol>  (14)
-7.3019999999999996

>  <vina_rmsd_to_crystal_angstrom>  (14)
8.3539999999999992

$$$$
BACE1_verubecestat__alternate_476_seed3301_ex32__pose15
     RDKit          3D

 45 47  0  0  0  0  0  0  0  0999 V2000
   29.0490   17.8730   25.2890 C   0  0  0  0  0  0  0  0  0  0  0  0
   29.0740   16.5370   24.6610 N   0  0  0  0  0  0  0  0  0  0  0  0
   29.8200   16.2470   23.4970 C   0  0  0  0  0  0  0  0  0  0  0  0
   30.6360   17.2690   23.0910 N   0  0  0  0  0  0  0  0  0  0  0  0
   29.7690   15.1120   22.8710 N   0  0  0  0  0  0  0  0  0  0  0  0
   28.8250   14.0640   23.2580 C   0  0  2  0  0  0  0  0  0  0  0  0
   29.4220   12.8100   22.6110 C   0  0  0  0  0  0  0  0  0  0  0  0
   27.4390   14.3020   22.6800 C   0  0  0  0  0  0  0  0  0  0  0  0
   26.3030   13.7820   23.2970 C   0  0  0  0  0  0  0  0  0  0  0  0
   25.0360   13.9790   22.7950 C   0  0  0  0  0  0  0  0  0  0  0  0
   23.9800   13.4040   23.5130 N   0  0  0  0  0  0  0  0  0  0  0  0
   23.3630   12.1840   23.3000 C   0  0  0  0  0  0  0  0  0  0  0  0
   23.5670   11.4490   22.3430 O   0  0  0  0  0  0  0  0  0  0  0  0
   22.4160   11.7600   24.3600 C   0  0  0  0  0  0  0  0  0  0  0  0
   21.5650   12.6870   24.9370 C   0  0  0  0  0  0  0  0  0  0  0  0
   20.7030   12.2380   25.9210 C   0  0  0  0  0  0  0  0  0  0  0  0
   20.7130   10.9060   26.2890 C   0  0  0  0  0  0  0  0  0  0  0  0
   19.9010   10.4260   27.2470 F   0  0  0  0  0  0  0  0  0  0  0  0
   21.6000   10.0610   25.6610 C   0  0  0  0  0  0  0  0  0  0  0  0
   22.4530   10.4690   24.7070 N   0  0  0  0  0  0  0  0  0  0  0  0
   24.8450   14.7370   21.6470 C   0  0  0  0  0  0  0  0  0  0  0  0
   25.9620   15.2590   21.0190 C   0  0  0  0  0  0  0  0  0  0  0  0
   27.2290   15.0260   21.5160 C   0  0  0  0  0  0  0  0  0  0  0  0
   28.3110   15.5250   20.8650 F   0  0  0  0  0  0  0  0  0  0  0  0
   28.8680   13.8530   24.7550 C   0  0  0  0  0  0  0  0  0  0  0  0
   28.3250   15.3110   25.6090 S   0  0  0  0  0  0  0  0  0  0  0  0
   28.9850   15.3040   26.9020 O   0  0  0  0  0  0  0  0  0  0  0  0
   26.9260   15.5420   25.4220 O   0  0  0  0  0  0  0  0  0  0  0  0
   29.0510   17.7637   26.3836 H   0  0  0  0  0  0  0  0  0  0  0  0
   29.9367   18.4421   24.9757 H   0  0  0  0  0  0  0  0  0  0  0  0
   28.1407   18.4085   24.9757 H   0  0  0  0  0  0  0  0  0  0  0  0
   31.1960   17.1620   22.2890 H   0  0  0  0  0  0  0  0  0  0  0  0
   30.6620   18.1110   23.6010 H   0  0  0  0  0  0  0  0  0  0  0  0
   29.7531   12.1145   23.3963 H   0  0  0  0  0  0  0  0  0  0  0  0
   28.6598   12.3215   21.9861 H   0  0  0  0  0  0  0  0  0  0  0  0
   30.2817   13.0937   21.9861 H   0  0  0  0  0  0  0  0  0  0  0  0
   26.4226   13.1929   24.2182 H   0  0  0  0  0  0  0  0  0  0  0  0
   23.6320   13.9360   24.2650 H   0  0  0  0  0  0  0  0  0  0  0  0
   21.5740   13.7416   24.6245 H   0  0  0  0  0  0  0  0  0  0  0  0
   20.0109   12.9396   26.4096 H   0  0  0  0  0  0  0  0  0  0  0  0
   21.6107    9.0009   25.9545 H   0  0  0  0  0  0  0  0  0  0  0  0
   23.8355   14.9170   21.2488 H   0  0  0  0  0  0  0  0  0  0  0  0
   25.8389   15.8680   20.1113 H   0  0  0  0  0  0  0  0  0  0  0  0
   28.2097   13.0127   25.0204 H   0  0  0  0  0  0  0  0  0  0  0  0
   29.9043   13.6341   25.0520 H   0  0  0  0  0  0  0  0  0  0  0  0
  1  2  1  0
  2  3  1  0
  3  4  1  0
  3  5  2  0
  5  6  1  0
  6  7  1  6
  6  8  1  0
  8  9  2  0
  9 10  1  0
 10 11  1  0
 11 12  1  0
 12 13  2  0
 12 14  1  0
 14 15  2  0
 15 16  1  0
 16 17  2  0
 17 18  1  0
 17 19  1  0
 19 20  2  0
 10 21  2  0
 21 22  1  0
 22 23  2  0
 23 24  1  0
  6 25  1  0
 25 26  1  0
 26 27  2  0
 26 28  2  0
 26  2  1  0
 23  8  1  0
 20 14  1  0
  1 29  1  0
  1 30  1  0
  1 31  1  0
  4 32  1  0
  4 33  1  0
  7 34  1  0
  7 35  1  0
  7 36  1  0
  9 37  1  0
 11 38  1  0
 15 39  1  0
 16 40  1  0
 19 41  1  0
 21 42  1  0
 22 43  1  0
 25 44  1  0
 25 45  1  0
M  END
>  <meeko>  (15)
{"is_sidechain": false}

>  <source_group>  (15)
BACE1-476

>  <source_system>  (15)
BACE1_verubecestat

>  <source_run>  (15)
alternate_476_seed3301_ex32

>  <source_seed>  (15)
3301

>  <vina_pose_rank>  (15)
15

>  <vina_affinity_kcal_mol>  (15)
-7.1639999999999997

>  <vina_rmsd_to_crystal_angstrom>  (15)
8.1856000000000009

$$$$
BACE1_verubecestat__alternate_476_seed3301_ex32__pose16
     RDKit          3D

 45 47  0  0  0  0  0  0  0  0999 V2000
   15.5050   15.0210   27.9210 C   0  0  0  0  0  0  0  0  0  0  0  0
   16.0040   13.8710   27.1410 N   0  0  0  0  0  0  0  0  0  0  0  0
   15.8830   12.5330   27.5780 C   0  0  0  0  0  0  0  0  0  0  0  0
   15.1300   12.3850   28.7110 N   0  0  0  0  0  0  0  0  0  0  0  0
   16.4100   11.5220   26.9600 N   0  0  0  0  0  0  0  0  0  0  0  0
   17.2900   11.7000   25.8060 C   0  0  2  0  0  0  0  0  0  0  0  0
   17.2730   10.3190   25.1450 C   0  0  0  0  0  0  0  0  0  0  0  0
   18.7160   12.0290   26.2210 C   0  0  0  0  0  0  0  0  0  0  0  0
   19.6690   12.4120   25.2790 C   0  0  0  0  0  0  0  0  0  0  0  0
   20.9670   12.7130   25.6250 C   0  0  0  0  0  0  0  0  0  0  0  0
   21.8240   13.0870   24.5820 N   0  0  0  0  0  0  0  0  0  0  0  0
   22.9090   12.3950   24.0740 C   0  0  0  0  0  0  0  0  0  0  0  0
   23.3810   11.3730   24.5560 O   0  0  0  0  0  0  0  0  0  0  0  0
   23.4900   12.9530   22.8290 C   0  0  0  0  0  0  0  0  0  0  0  0
   23.2770   12.3140   21.6200 C   0  0  0  0  0  0  0  0  0  0  0  0
   23.8440   12.8770   20.4910 C   0  0  0  0  0  0  0  0  0  0  0  0
   24.5860   14.0380   20.5990 C   0  0  0  0  0  0  0  0  0  0  0  0
   25.1630   14.6160   19.5320 F   0  0  0  0  0  0  0  0  0  0  0  0
   24.7460   14.5970   21.8460 C   0  0  0  0  0  0  0  0  0  0  0  0
   24.2130   14.0700   22.9610 N   0  0  0  0  0  0  0  0  0  0  0  0
   21.3700   12.6640   26.9540 C   0  0  0  0  0  0  0  0  0  0  0  0
   20.4370   12.2810   27.9020 C   0  0  0  0  0  0  0  0  0  0  0  0
   19.1470   11.9520   27.5360 C   0  0  0  0  0  0  0  0  0  0  0  0
   18.2600   11.5510   28.4820 F   0  0  0  0  0  0  0  0  0  0  0  0
   16.6690   12.6680   24.8240 C   0  0  0  0  0  0  0  0  0  0  0  0
   16.5120   14.2820   25.5480 S   0  0  0  0  0  0  0  0  0  0  0  0
   15.3880   14.9230   24.8900 O   0  0  0  0  0  0  0  0  0  0  0  0
   17.7870   14.8980   25.7440 O   0  0  0  0  0  0  0  0  0  0  0  0
   15.5992   14.8040   28.9953 H   0  0  0  0  0  0  0  0  0  0  0  0
   16.0960   15.9154   27.6744 H   0  0  0  0  0  0  0  0  0  0  0  0
   14.4481   15.2004   27.6744 H   0  0  0  0  0  0  0  0  0  0  0  0
   14.9870   11.4890   29.0940 H   0  0  0  0  0  0  0  0  0  0  0  0
   14.7300   13.1740   29.1440 H   0  0  0  0  0  0  0  0  0  0  0  0
   17.2634    9.5406   25.9222 H   0  0  0  0  0  0  0  0  0  0  0  0
   16.3736   10.2232   24.5190 H   0  0  0  0  0  0  0  0  0  0  0  0
   18.1698   10.2011   24.5190 H   0  0  0  0  0  0  0  0  0  0  0  0
   19.3735   12.4761   24.2214 H   0  0  0  0  0  0  0  0  0  0  0  0
   21.6300   13.9540   24.1570 H   0  0  0  0  0  0  0  0  0  0  0  0
   22.6791   11.3927   21.5592 H   0  0  0  0  0  0  0  0  0  0  0  0
   23.7046   12.4015   19.5089 H   0  0  0  0  0  0  0  0  0  0  0  0
   25.3386   15.5195   21.9343 H   0  0  0  0  0  0  0  0  0  0  0  0
   22.3993   12.9218   27.2439 H   0  0  0  0  0  0  0  0  0  0  0  0
   20.7274   12.2381   28.9621 H   0  0  0  0  0  0  0  0  0  0  0  0
   17.3062   12.7338   23.9297 H   0  0  0  0  0  0  0  0  0  0  0  0
   15.6674   12.3030   24.5528 H   0  0  0  0  0  0  0  0  0  0  0  0
  1  2  1  0
  2  3  1  0
  3  4  1  0
  3  5  2  0
  5  6  1  0
  6  7  1  6
  6  8  1  0
  8  9  2  0
  9 10  1  0
 10 11  1  0
 11 12  1  0
 12 13  2  0
 12 14  1  0
 14 15  2  0
 15 16  1  0
 16 17  2  0
 17 18  1  0
 17 19  1  0
 19 20  2  0
 10 21  2  0
 21 22  1  0
 22 23  2  0
 23 24  1  0
  6 25  1  0
 25 26  1  0
 26 27  2  0
 26 28  2  0
 26  2  1  0
 23  8  1  0
 20 14  1  0
  1 29  1  0
  1 30  1  0
  1 31  1  0
  4 32  1  0
  4 33  1  0
  7 34  1  0
  7 35  1  0
  7 36  1  0
  9 37  1  0
 11 38  1  0
 15 39  1  0
 16 40  1  0
 19 41  1  0
 21 42  1  0
 22 43  1  0
 25 44  1  0
 25 45  1  0
M  END
>  <meeko>  (16)
{"is_sidechain": false}

>  <source_group>  (16)
BACE1-476

>  <source_system>  (16)
BACE1_verubecestat

>  <source_run>  (16)
alternate_476_seed3301_ex32

>  <source_seed>  (16)
3301

>  <vina_pose_rank>  (16)
16

>  <vina_affinity_kcal_mol>  (16)
-7.0339999999999998

>  <vina_rmsd_to_crystal_angstrom>  (16)
7.4817999999999998

$$$$
BACE1_verubecestat__alternate_476_seed3301_ex32__pose17
     RDKit          3D

 45 47  0  0  0  0  0  0  0  0999 V2000
   27.2460   13.7730   25.2380 C   0  0  0  0  0  0  0  0  0  0  0  0
   26.9900   13.4240   23.8270 N   0  0  0  0  0  0  0  0  0  0  0  0
   27.9000   12.6850   23.0380 C   0  0  0  0  0  0  0  0  0  0  0  0
   28.9680   12.1920   23.7390 N   0  0  0  0  0  0  0  0  0  0  0  0
   27.7410   12.4620   21.7700 N   0  0  0  0  0  0  0  0  0  0  0  0
   26.6480   13.0720   21.0140 C   0  0  2  0  0  0  0  0  0  0  0  0
   26.5670   12.1960   19.7610 C   0  0  0  0  0  0  0  0  0  0  0  0
   26.9700   14.4980   20.5960 C   0  0  0  0  0  0  0  0  0  0  0  0
   28.1720   15.1020   20.9610 C   0  0  0  0  0  0  0  0  0  0  0  0
   28.4890   16.3920   20.5990 C   0  0  0  0  0  0  0  0  0  0  0  0
   29.7300   16.8780   21.0290 N   0  0  0  0  0  0  0  0  0  0  0  0
   30.1400   17.1600   22.3200 C   0  0  0  0  0  0  0  0  0  0  0  0
   29.4160   17.1480   23.3070 O   0  0  0  0  0  0  0  0  0  0  0  0
   31.5840   17.4600   22.4750 C   0  0  0  0  0  0  0  0  0  0  0  0
   32.1270   17.6120   23.7390 C   0  0  0  0  0  0  0  0  0  0  0  0
   33.4790   17.8930   23.8250 C   0  0  0  0  0  0  0  0  0  0  0  0
   34.2320   18.0080   22.6730 C   0  0  0  0  0  0  0  0  0  0  0  0
   35.5460   18.2880   22.7070 F   0  0  0  0  0  0  0  0  0  0  0  0
   33.6010   17.8450   21.4610 C   0  0  0  0  0  0  0  0  0  0  0  0
   32.2900   17.5770   21.3460 N   0  0  0  0  0  0  0  0  0  0  0  0
   27.6120   17.1400   19.8240 C   0  0  0  0  0  0  0  0  0  0  0  0
   26.4120   16.5580   19.4540 C   0  0  0  0  0  0  0  0  0  0  0  0
   26.0940   15.2740   19.8520 C   0  0  0  0  0  0  0  0  0  0  0  0
   24.8980   14.7370   19.5010 F   0  0  0  0  0  0  0  0  0  0  0  0
   25.3430   12.9020   21.7590 C   0  0  0  0  0  0  0  0  0  0  0  0
   25.3860   13.7720   23.3060 S   0  0  0  0  0  0  0  0  0  0  0  0
   24.4820   13.0720   24.2000 O   0  0  0  0  0  0  0  0  0  0  0  0
   25.3890   15.1890   23.1140 O   0  0  0  0  0  0  0  0  0  0  0  0
   26.7232   13.0602   25.8927 H   0  0  0  0  0  0  0  0  0  0  0  0
   28.3270   13.7282   25.4365 H   0  0  0  0  0  0  0  0  0  0  0  0
   26.8786   14.7907   25.4365 H   0  0  0  0  0  0  0  0  0  0  0  0
   29.6580   11.6630   23.2760 H   0  0  0  0  0  0  0  0  0  0  0  0
   29.0460   12.3660   24.7050 H   0  0  0  0  0  0  0  0  0  0  0  0
   26.4694   11.1410   20.0568 H   0  0  0  0  0  0  0  0  0  0  0  0
   25.6923   12.4915   19.1629 H   0  0  0  0  0  0  0  0  0  0  0  0
   27.4810   12.3261   19.1629 H   0  0  0  0  0  0  0  0  0  0  0  0
   28.8936   14.5271   21.5600 H   0  0  0  0  0  0  0  0  0  0  0  0
   30.3960   17.0390   20.3220 H   0  0  0  0  0  0  0  0  0  0  0  0
   31.5065   17.5130   24.6419 H   0  0  0  0  0  0  0  0  0  0  0  0
   33.9531   18.0245   24.8088 H   0  0  0  0  0  0  0  0  0  0  0  0
   34.1989   17.9387   20.5425 H   0  0  0  0  0  0  0  0  0  0  0  0
   27.8638   18.1648   19.5134 H   0  0  0  0  0  0  0  0  0  0  0  0
   25.7019   17.1256   18.8346 H   0  0  0  0  0  0  0  0  0  0  0  0
   24.5218   13.2989   21.1441 H   0  0  0  0  0  0  0  0  0  0  0  0
   25.1868   11.8317   21.9592 H   0  0  0  0  0  0  0  0  0  0  0  0
  1  2  1  0
  2  3  1  0
  3  4  1  0
  3  5  2  0
  5  6  1  0
  6  7  1  6
  6  8  1  0
  8  9  2  0
  9 10  1  0
 10 11  1  0
 11 12  1  0
 12 13  2  0
 12 14  1  0
 14 15  2  0
 15 16  1  0
 16 17  2  0
 17 18  1  0
 17 19  1  0
 19 20  2  0
 10 21  2  0
 21 22  1  0
 22 23  2  0
 23 24  1  0
  6 25  1  0
 25 26  1  0
 26 27  2  0
 26 28  2  0
 26  2  1  0
 23  8  1  0
 20 14  1  0
  1 29  1  0
  1 30  1  0
  1 31  1  0
  4 32  1  0
  4 33  1  0
  7 34  1  0
  7 35  1  0
  7 36  1  0
  9 37  1  0
 11 38  1  0
 15 39  1  0
 16 40  1  0
 19 41  1  0
 21 42  1  0
 22 43  1  0
 25 44  1  0
 25 45  1  0
M  END
>  <meeko>  (17)
{"is_sidechain": false}

>  <source_group>  (17)
BACE1-476

>  <source_system>  (17)
BACE1_verubecestat

>  <source_run>  (17)
alternate_476_seed3301_ex32

>  <source_seed>  (17)
3301

>  <vina_pose_rank>  (17)
17

>  <vina_affinity_kcal_mol>  (17)
-7.0289999999999999

>  <vina_rmsd_to_crystal_angstrom>  (17)
6.9526000000000003

$$$$
BACE1_verubecestat__alternate_476_seed3301_ex32__pose18
     RDKit          3D

 45 47  0  0  0  0  0  0  0  0999 V2000
   25.3760   11.8820   18.9070 C   0  0  0  0  0  0  0  0  0  0  0  0
   24.6950   12.2040   20.1770 N   0  0  0  0  0  0  0  0  0  0  0  0
   23.9230   13.3730   20.3610 C   0  0  0  0  0  0  0  0  0  0  0  0
   23.7350   14.1010   19.2170 N   0  0  0  0  0  0  0  0  0  0  0  0
   23.4090   13.7260   21.4990 N   0  0  0  0  0  0  0  0  0  0  0  0
   23.6940   12.9920   22.7310 C   0  0  2  0  0  0  0  0  0  0  0  0
   22.5600   13.4320   23.6620 C   0  0  0  0  0  0  0  0  0  0  0  0
   25.0220   13.4050   23.3460 C   0  0  0  0  0  0  0  0  0  0  0  0
   25.9330   14.1860   22.6360 C   0  0  0  0  0  0  0  0  0  0  0  0
   27.1430   14.5710   23.1670 C   0  0  0  0  0  0  0  0  0  0  0  0
   27.9650   15.3570   22.3490 N   0  0  0  0  0  0  0  0  0  0  0  0
   29.3420   15.3150   22.2240 C   0  0  0  0  0  0  0  0  0  0  0  0
   30.0930   14.6500   22.9260 O   0  0  0  0  0  0  0  0  0  0  0  0
   29.9030   16.1290   21.1190 C   0  0  0  0  0  0  0  0  0  0  0  0
   29.0560   16.8130   20.2650 C   0  0  0  0  0  0  0  0  0  0  0  0
   29.6330   17.5550   19.2500 C   0  0  0  0  0  0  0  0  0  0  0  0
   31.0080   17.5950   19.1240 C   0  0  0  0  0  0  0  0  0  0  0  0
   31.6130   18.2950   18.1480 F   0  0  0  0  0  0  0  0  0  0  0  0
   31.7680   16.8770   20.0190 C   0  0  0  0  0  0  0  0  0  0  0  0
   31.2360   16.1430   21.0100 N   0  0  0  0  0  0  0  0  0  0  0  0
   27.4920   14.2050   24.4600 C   0  0  0  0  0  0  0  0  0  0  0  0
   26.6020   13.4270   25.1790 C   0  0  0  0  0  0  0  0  0  0  0  0
   25.4050   13.0210   24.6220 C   0  0  0  0  0  0  0  0  0  0  0  0
   24.5620   12.2340   25.3380 F   0  0  0  0  0  0  0  0  0  0  0  0
   23.5280   11.5070   22.5020 C   0  0  0  0  0  0  0  0  0  0  0  0
   24.7150   10.9180   21.3210 S   0  0  0  0  0  0  0  0  0  0  0  0
   24.1190    9.7610   20.6770 O   0  0  0  0  0  0  0  0  0  0  0  0
   26.0430   10.9490   21.8480 O   0  0  0  0  0  0  0  0  0  0  0  0
   26.3515   11.4208   19.1207 H   0  0  0  0  0  0  0  0  0  0  0  0
   24.7580   11.1807   18.3271 H   0  0  0  0  0  0  0  0  0  0  0  0
   25.5258   12.8046   18.3271 H   0  0  0  0  0  0  0  0  0  0  0  0
   23.2100   14.9330   19.2440 H   0  0  0  0  0  0  0  0  0  0  0  0
   24.1260   13.7930   18.3670 H   0  0  0  0  0  0  0  0  0  0  0  0
   22.8762   13.3093   24.7084 H   0  0  0  0  0  0  0  0  0  0  0  0
   22.3196   14.4887   23.4731 H   0  0  0  0  0  0  0  0  0  0  0  0
   21.6698   12.8140   23.4731 H   0  0  0  0  0  0  0  0  0  0  0  0
   25.6756   14.5057   21.6155 H   0  0  0  0  0  0  0  0  0  0  0  0
   27.5030   16.0250   21.7910 H   0  0  0  0  0  0  0  0  0  0  0  0
   27.9639   16.7684   20.3886 H   0  0  0  0  0  0  0  0  0  0  0  0
   28.9984   18.1118   18.5449 H   0  0  0  0  0  0  0  0  0  0  0  0
   32.8630   16.9056   19.9179 H   0  0  0  0  0  0  0  0  0  0  0  0
   28.4483   14.5243   24.9000 H   0  0  0  0  0  0  0  0  0  0  0  0
   26.8510   13.1278   26.2078 H   0  0  0  0  0  0  0  0  0  0  0  0
   23.6725   10.9763   23.4546 H   0  0  0  0  0  0  0  0  0  0  0  0
   22.5171   11.3202   22.1107 H   0  0  0  0  0  0  0  0  0  0  0  0
  1  2  1  0
  2  3  1  0
  3  4  1  0
  3  5  2  0
  5  6  1  0
  6  7  1  1
  6  8  1  0
  8  9  2  0
  9 10  1  0
 10 11  1  0
 11 12  1  0
 12 13  2  0
 12 14  1  0
 14 15  2  0
 15 16  1  0
 16 17  2  0
 17 18  1  0
 17 19  1  0
 19 20  2  0
 10 21  2  0
 21 22  1  0
 22 23  2  0
 23 24  1  0
  6 25  1  0
 25 26  1  0
 26 27  2  0
 26 28  2  0
 26  2  1  0
 23  8  1  0
 20 14  1  0
  1 29  1  0
  1 30  1  0
  1 31  1  0
  4 32  1  0
  4 33  1  0
  7 34  1  0
  7 35  1  0
  7 36  1  0
  9 37  1  0
 11 38  1  0
 15 39  1  0
 16 40  1  0
 19 41  1  0
 21 42  1  0
 22 43  1  0
 25 44  1  0
 25 45  1  0
M  END
>  <meeko>  (18)
{"is_sidechain": false}

>  <source_group>  (18)
BACE1-476

>  <source_system>  (18)
BACE1_verubecestat

>  <source_run>  (18)
alternate_476_seed3301_ex32

>  <source_seed>  (18)
3301

>  <vina_pose_rank>  (18)
18

>  <vina_affinity_kcal_mol>  (18)
-7.0259999999999998

>  <vina_rmsd_to_crystal_angstrom>  (18)
6.4119999999999999

$$$$
BACE1_verubecestat__alternate_476_seed3301_ex32__pose19
     RDKit          3D

 45 47  0  0  0  0  0  0  0  0999 V2000
   30.9840   17.5810   24.3540 C   0  0  0  0  0  0  0  0  0  0  0  0
   30.3890   16.2350   24.2350 N   0  0  0  0  0  0  0  0  0  0  0  0
   30.8920   15.2450   23.3610 C   0  0  0  0  0  0  0  0  0  0  0  0
   32.0670   15.5910   22.7480 N   0  0  0  0  0  0  0  0  0  0  0  0
   30.3190   14.0990   23.1630 N   0  0  0  0  0  0  0  0  0  0  0  0
   29.0180   13.7790   23.7480 C   0  0  2  0  0  0  0  0  0  0  0  0
   28.9700   12.2510   23.6640 C   0  0  0  0  0  0  0  0  0  0  0  0
   27.8690   14.3520   22.9320 C   0  0  0  0  0  0  0  0  0  0  0  0
   28.1000   15.0020   21.7200 C   0  0  0  0  0  0  0  0  0  0  0  0
   27.0810   15.5320   20.9630 C   0  0  0  0  0  0  0  0  0  0  0  0
   27.4490   16.1570   19.7640 N   0  0  0  0  0  0  0  0  0  0  0  0
   28.1230   17.3530   19.5940 C   0  0  0  0  0  0  0  0  0  0  0  0
   28.4000   18.1400   20.4900 O   0  0  0  0  0  0  0  0  0  0  0  0
   28.5530   17.6450   18.2040 C   0  0  0  0  0  0  0  0  0  0  0  0
   29.8920   17.8580   17.9260 C   0  0  0  0  0  0  0  0  0  0  0  0
   30.2370   18.1280   16.6130 C   0  0  0  0  0  0  0  0  0  0  0  0
   29.2580   18.1730   15.6400 C   0  0  0  0  0  0  0  0  0  0  0  0
   29.5430   18.4410   14.3540 F   0  0  0  0  0  0  0  0  0  0  0  0
   27.9520   17.9530   16.0160 C   0  0  0  0  0  0  0  0  0  0  0  0
   27.5860   17.6950   17.2830 N   0  0  0  0  0  0  0  0  0  0  0  0
   25.7610   15.4150   21.3790 C   0  0  0  0  0  0  0  0  0  0  0  0
   25.5130   14.7760   22.5810 C   0  0  0  0  0  0  0  0  0  0  0  0
   26.5480   14.2770   23.3460 C   0  0  0  0  0  0  0  0  0  0  0  0
   26.2800   13.6800   24.5360 F   0  0  0  0  0  0  0  0  0  0  0  0
   29.0050   14.1430   25.2160 C   0  0  0  0  0  0  0  0  0  0  0  0
   29.1970   15.8940   25.4290 S   0  0  0  0  0  0  0  0  0  0  0  0
   29.8210   16.0870   26.7260 O   0  0  0  0  0  0  0  0  0  0  0  0
   28.0460   16.6110   24.9780 O   0  0  0  0  0  0  0  0  0  0  0  0
   31.0980   17.8388   25.4173 H   0  0  0  0  0  0  0  0  0  0  0  0
   31.9701   17.5904   23.8667 H   0  0  0  0  0  0  0  0  0  0  0  0
   30.3272   18.3166   23.8667 H   0  0  0  0  0  0  0  0  0  0  0  0
   32.4960   14.9660   22.1200 H   0  0  0  0  0  0  0  0  0  0  0  0
   32.4830   16.4630   22.9360 H   0  0  0  0  0  0  0  0  0  0  0  0
   28.9567   11.8282   24.6794 H   0  0  0  0  0  0  0  0  0  0  0  0
   28.0617   11.9417   23.1261 H   0  0  0  0  0  0  0  0  0  0  0  0
   29.8571   11.8853   23.1261 H   0  0  0  0  0  0  0  0  0  0  0  0
   29.1340   15.0942   21.3563 H   0  0  0  0  0  0  0  0  0  0  0  0
   27.1960   15.6850   18.9380 H   0  0  0  0  0  0  0  0  0  0  0  0
   30.6534   17.8144   18.7187 H   0  0  0  0  0  0  0  0  0  0  0  0
   31.2889   18.3064   16.3451 H   0  0  0  0  0  0  0  0  0  0  0  0
   27.1709   17.9902   15.2424 H   0  0  0  0  0  0  0  0  0  0  0  0
   24.9376   15.8182   20.7712 H   0  0  0  0  0  0  0  0  0  0  0  0
   24.4765   14.6641   22.9319 H   0  0  0  0  0  0  0  0  0  0  0  0
   28.0480   13.8282   25.6577 H   0  0  0  0  0  0  0  0  0  0  0  0
   29.8417   13.6320   25.7148 H   0  0  0  0  0  0  0  0  0  0  0  0
  1  2  1  0
  2  3  1  0
  3  4  1  0
  3  5  2  0
  5  6  1  0
  6  7  1  1
  6  8  1  0
  8  9  2  0
  9 10  1  0
 10 11  1  0
 11 12  1  0
 12 13  2  0
 12 14  1  0
 14 15  2  0
 15 16  1  0
 16 17  2  0
 17 18  1  0
 17 19  1  0
 19 20  2  0
 10 21  2  0
 21 22  1  0
 22 23  2  0
 23 24  1  0
  6 25  1  0
 25 26  1  0
 26 27  2  0
 26 28  2  0
 26  2  1  0
 23  8  1  0
 20 14  1  0
  1 29  1  0
  1 30  1  0
  1 31  1  0
  4 32  1  0
  4 33  1  0
  7 34  1  0
  7 35  1  0
  7 36  1  0
  9 37  1  0
 11 38  1  0
 15 39  1  0
 16 40  1  0
 19 41  1  0
 21 42  1  0
 22 43  1  0
 25 44  1  0
 25 45  1  0
M  END
>  <meeko>  (19)
{"is_sidechain": false}

>  <source_group>  (19)
BACE1-476

>  <source_system>  (19)
BACE1_verubecestat

>  <source_run>  (19)
alternate_476_seed3301_ex32

>  <source_seed>  (19)
3301

>  <vina_pose_rank>  (19)
19

>  <vina_affinity_kcal_mol>  (19)
-6.9779999999999998

>  <vina_rmsd_to_crystal_angstrom>  (19)
8.8948

$$$$
BACE1_verubecestat__alternate_476_seed3301_ex32__pose20
     RDKit          3D

 45 47  0  0  0  0  0  0  0  0999 V2000
   24.8270   11.6680   19.2220 C   0  0  0  0  0  0  0  0  0  0  0  0
   24.8080   12.3300   20.5410 N   0  0  0  0  0  0  0  0  0  0  0  0
   24.0400   13.4830   20.8130 C   0  0  0  0  0  0  0  0  0  0  0  0
   23.1990   13.8440   19.7940 N   0  0  0  0  0  0  0  0  0  0  0  0
   24.0940   14.1390   21.9310 N   0  0  0  0  0  0  0  0  0  0  0  0
   25.0620   13.8020   22.9740 C   0  0  2  0  0  0  0  0  0  0  0  0
   24.4700   14.4670   24.2200 C   0  0  0  0  0  0  0  0  0  0  0  0
   26.4300   14.4050   22.6990 C   0  0  0  0  0  0  0  0  0  0  0  0
   26.6900   15.0900   21.5130 C   0  0  0  0  0  0  0  0  0  0  0  0
   27.9200   15.6440   21.2360 C   0  0  0  0  0  0  0  0  0  0  0  0
   28.0470   16.3080   20.0090 N   0  0  0  0  0  0  0  0  0  0  0  0
   28.9500   17.2960   19.6590 C   0  0  0  0  0  0  0  0  0  0  0  0
   29.7190   17.8530   20.4320 O   0  0  0  0  0  0  0  0  0  0  0  0
   28.9730   17.6520   18.2200 C   0  0  0  0  0  0  0  0  0  0  0  0
   27.7910   17.7060   17.5020 C   0  0  0  0  0  0  0  0  0  0  0  0
   27.8720   18.0410   16.1610 C   0  0  0  0  0  0  0  0  0  0  0  0
   29.1020   18.3080   15.5920 C   0  0  0  0  0  0  0  0  0  0  0  0
   29.2310   18.6280   14.2930 F   0  0  0  0  0  0  0  0  0  0  0  0
   30.2230   18.2230   16.3870 C   0  0  0  0  0  0  0  0  0  0  0  0
   30.1760   17.8950   17.6890 N   0  0  0  0  0  0  0  0  0  0  0  0
   28.9550   15.5540   22.1580 C   0  0  0  0  0  0  0  0  0  0  0  0
   28.7160   14.8750   23.3400 C   0  0  0  0  0  0  0  0  0  0  0  0
   27.4870   14.2970   23.5900 C   0  0  0  0  0  0  0  0  0  0  0  0
   27.2880   13.6110   24.7440 F   0  0  0  0  0  0  0  0  0  0  0  0
   25.0570   12.3100   23.2240 C   0  0  0  0  0  0  0  0  0  0  0  0
   25.5980   11.4310   21.7790 S   0  0  0  0  0  0  0  0  0  0  0  0
   24.9690   10.1240   21.8300 O   0  0  0  0  0  0  0  0  0  0  0  0
   26.9890   11.6440   21.5220 O   0  0  0  0  0  0  0  0  0  0  0  0
   24.8583   10.5771   19.3597 H   0  0  0  0  0  0  0  0  0  0  0  0
   23.9207   11.9410   18.6616 H   0  0  0  0  0  0  0  0  0  0  0  0
   25.7162   11.9925   18.6616 H   0  0  0  0  0  0  0  0  0  0  0  0
   22.6220   14.6360   19.8900 H   0  0  0  0  0  0  0  0  0  0  0  0
   23.1720   13.3110   18.9670 H   0  0  0  0  0  0  0  0  0  0  0  0
   24.8893   13.9960   25.1213 H   0  0  0  0  0  0  0  0  0  0  0  0
   24.7186   15.5385   24.2169 H   0  0  0  0  0  0  0  0  0  0  0  0
   23.3769   14.3442   24.2169 H   0  0  0  0  0  0  0  0  0  0  0  0
   25.8837   15.1917   20.7717 H   0  0  0  0  0  0  0  0  0  0  0  0
   27.4140   16.0350   19.3060 H   0  0  0  0  0  0  0  0  0  0  0  0
   26.8234   17.4908   17.9789 H   0  0  0  0  0  0  0  0  0  0  0  0
   26.9588   18.0944   15.5501 H   0  0  0  0  0  0  0  0  0  0  0  0
   31.2034   18.4336   15.9347 H   0  0  0  0  0  0  0  0  0  0  0  0
   29.9356   16.0090   21.9547 H   0  0  0  0  0  0  0  0  0  0  0  0
   29.5160   14.7946   24.0907 H   0  0  0  0  0  0  0  0  0  0  0  0
   25.7339   12.0815   24.0604 H   0  0  0  0  0  0  0  0  0  0  0  0
   24.0314   11.9950   23.4668 H   0  0  0  0  0  0  0  0  0  0  0  0
  1  2  1  0
  2  3  1  0
  3  4  1  0
  3  5  2  0
  5  6  1  0
  6  7  1  1
  6  8  1  0
  8  9  2  0
  9 10  1  0
 10 11  1  0
 11 12  1  0
 12 13  2  0
 12 14  1  0
 14 15  2  0
 15 16  1  0
 16 17  2  0
 17 18  1  0
 17 19  1  0
 19 20  2  0
 10 21  2  0
 21 22  1  0
 22 23  2  0
 23 24  1  0
  6 25  1  0
 25 26  1  0
 26 27  2  0
 26 28  2  0
 26  2  1  0
 23  8  1  0
 20 14  1  0
  1 29  1  0
  1 30  1  0
  1 31  1  0
  4 32  1  0
  4 33  1  0
  7 34  1  0
  7 35  1  0
  7 36  1  0
  9 37  1  0
 11 38  1  0
 15 39  1  0
 16 40  1  0
 19 41  1  0
 21 42  1  0
 22 43  1  0
 25 44  1  0
 25 45  1  0
M  END
>  <meeko>  (20)
{"is_sidechain": false}

>  <source_group>  (20)
BACE1-476

>  <source_system>  (20)
BACE1_verubecestat

>  <source_run>  (20)
alternate_476_seed3301_ex32

>  <source_seed>  (20)
3301

>  <vina_pose_rank>  (20)
20

>  <vina_affinity_kcal_mol>  (20)
-6.8600000000000003

>  <vina_rmsd_to_crystal_angstrom>  (20)
7.6614000000000004

$$$$
