BACE1_verubecestat__alternate_476_seed3301_ex32__pose01


 31 33  0  0  0  0  0  0  0  0999 V2000
   24.7230   12.4920   21.0290 C   0  0  0  0  0  0  0  0  0  0  0  0
   24.0300   12.2460   22.2140 C   0  0  0  0  0  0  0  0  0  0  0  0
   23.3930   11.0510   22.4600 C   0  0  0  0  0  0  0  0  0  0  0  0
   23.4010   10.0400   21.5070 C   0  0  0  0  0  0  0  0  0  0  0  0
   24.0870   10.2650   20.3260 C   0  0  0  0  0  0  0  0  0  0  0  0
   24.7490   11.4570   20.1070 C   0  0  0  0  0  0  0  0  0  0  0  0
   25.4400   11.6410   18.9520 F   0  0  0  0  0  0  0  0  0  0  0  0
   27.6030   13.7850   24.5200 C   0  0  0  0  0  0  0  0  0  0  0  0
   26.9310   13.8930   23.2100 N   0  0  0  0  0  0  0  0  0  0  0  0
   25.8330   14.7500   22.9750 C   0  0  0  0  0  0  0  0  0  0  0  0
   25.5440   15.5820   24.0230 N   0  0  0  0  0  0  0  0  0  0  0  0
   25.1640   14.7780   21.8640 N   0  0  0  0  0  0  0  0  0  0  0  0
   25.4210   13.8210   20.7890 C   0  0  0  0  0  0  0  0  0  0  0  0
   24.7870   14.4980   19.5700 C   0  0  0  0  0  0  0  0  0  0  0  0
   26.9060   13.7270   20.5210 C   0  0  0  0  0  0  0  0  0  0  0  0
   27.7580   13.0790   21.9370 S   0  0  0  0  0  0  0  0  0  0  0  0
   29.1070   13.6150   21.8900 O   0  0  0  0  0  0  0  0  0  0  0  0
   27.4480   11.7010   22.1550 O   0  0  0  0  0  0  0  0  0  0  0  0
   24.7950   16.2170   23.9550 H   0  0  0  0  0  0  0  0  0  0  0  0
   26.0860   15.5450   24.8450 H   0  0  0  0  0  0  0  0  0  0  0  0
   22.7300   10.9340   23.6880 N   0  0  0  0  0  0  0  0  0  0  0  0
   23.2270   11.1790   24.9560 C   0  0  0  0  0  0  0  0  0  0  0  0
   24.3980   11.4200   25.2200 O   0  0  0  0  0  0  0  0  0  0  0  0
   21.7910   10.6420   23.6440 H   0  0  0  0  0  0  0  0  0  0  0  0
   22.2180   11.1700   26.0440 C   0  0  0  0  0  0  0  0  0  0  0  0
   20.9200   10.7710   25.7790 C   0  0  0  0  0  0  0  0  0  0  0  0
   20.0200   10.7840   26.8300 C   0  0  0  0  0  0  0  0  0  0  0  0
   20.4350   11.1830   28.0860 C   0  0  0  0  0  0  0  0  0  0  0  0
   19.5950   11.2210   29.1350 F   0  0  0  0  0  0  0  0  0  0  0  0
   21.7460   11.5680   28.2490 C   0  0  0  0  0  0  0  0  0  0  0  0
   22.6410   11.5710   27.2470 N   0  0  0  0  0  0  0  0  0  0  0  0
  8  9  1  0
  9 10  1  0
 10 11  1  0
 10 12  2  0
 12 13  1  0
 13 14  1  0
 13  1  1  0
  1  2  2  0
  2  3  1  0
  3 21  1  0
 21 22  1  0
 22 23  2  0
 22 25  1  0
 25 26  2  0
 26 27  1  0
 27 28  2  0
 28 29  1  0
 28 30  1  0
 30 31  2  0
  3  4  2  0
  4  5  1  0
  5  6  2  0
  6  7  1  0
 13 15  1  0
 15 16  1  0
 16 17  2  0
 16 18  2  0
 16  9  1  0
  6  1  1  0
 31 25  1  0
 11 19  1  0
 11 20  1  0
 21 24  1  0
M  END
> <meeko>
{"is_sidechain": false}

> <source_group>
BACE1-476

> <source_system>
BACE1_verubecestat

> <source_run>
alternate_476_seed3301_ex32

> <source_seed>
3301

> <vina_pose_rank>
1

> <vina_affinity_kcal_mol>
-9.1839999999999993

> <vina_rmsd_to_crystal_angstrom>
7.1093000000000002

> <minimizedAffinity>
-9.18007

> <CNNscore>
0.1185875013

> <CNNaffinity>
5.6976294518

> <CNN_VS>
0.6756676435

> <CNNaffinity_variance>
0.5775384903

$$$$
BACE1_verubecestat__alternate_476_seed3301_ex32__pose02


 31 33  0  0  0  0  0  0  0  0999 V2000
   25.0130   12.1470   21.0480 C   0  0  0  0  0  0  0  0  0  0  0  0
   24.6030   12.2800   22.3740 C   0  0  0  0  0  0  0  0  0  0  0  0
   23.6360   11.4740   22.9300 C   0  0  0  0  0  0  0  0  0  0  0  0
   23.0100   10.4970   22.1660 C   0  0  0  0  0  0  0  0  0  0  0  0
   23.4070   10.3480   20.8490 C   0  0  0  0  0  0  0  0  0  0  0  0
   24.4010   11.1430   20.3140 C   0  0  0  0  0  0  0  0  0  0  0  0
   24.7930   10.9580   19.0270 F   0  0  0  0  0  0  0  0  0  0  0  0
   29.1900   11.7630   23.1830 C   0  0  0  0  0  0  0  0  0  0  0  0
   28.2200   12.2590   22.1870 N   0  0  0  0  0  0  0  0  0  0  0  0
   27.6030   13.5260   22.2770 C   0  0  0  0  0  0  0  0  0  0  0  0
   28.0960   14.3130   23.2840 N   0  0  0  0  0  0  0  0  0  0  0  0
   26.6700   13.9340   21.4730 N   0  0  0  0  0  0  0  0  0  0  0  0
   26.0870   13.0520   20.4640 C   0  0  0  0  0  0  0  0  0  0  0  0
   25.4290   14.0330   19.4890 C   0  0  0  0  0  0  0  0  0  0  0  0
   27.1820   12.3380   19.7030 C   0  0  0  0  0  0  0  0  0  0  0  0
   28.1030   11.2710   20.7820 S   0  0  0  0  0  0  0  0  0  0  0  0
   29.4360   11.1640   20.2180 O   0  0  0  0  0  0  0  0  0  0  0  0
   27.3200   10.1550   21.2130 O   0  0  0  0  0  0  0  0  0  0  0  0
   27.7290   15.2160   23.4270 H   0  0  0  0  0  0  0  0  0  0  0  0
   28.8170   13.9770   23.8640 H   0  0  0  0  0  0  0  0  0  0  0  0
   23.3150   11.7130   24.2720 N   0  0  0  0  0  0  0  0  0  0  0  0
   22.4570   12.6670   24.7910 C   0  0  0  0  0  0  0  0  0  0  0  0
   21.9260   13.5620   24.1460 O   0  0  0  0  0  0  0  0  0  0  0  0
   23.7550   11.1280   24.9310 H   0  0  0  0  0  0  0  0  0  0  0  0
   22.1620   12.5330   26.2380 C   0  0  0  0  0  0  0  0  0  0  0  0
   22.9040   13.2470   27.1640 C   0  0  0  0  0  0  0  0  0  0  0  0
   22.5870   13.0830   28.5010 C   0  0  0  0  0  0  0  0  0  0  0  0
   21.5600   12.2330   28.8650 C   0  0  0  0  0  0  0  0  0  0  0  0
   21.2230   12.0350   30.1510 F   0  0  0  0  0  0  0  0  0  0  0  0
   20.8840   11.5620   27.8720 C   0  0  0  0  0  0  0  0  0  0  0  0
   21.1720   11.6970   26.5670 N   0  0  0  0  0  0  0  0  0  0  0  0
  8  9  1  0
  9 10  1  0
 10 11  1  0
 10 12  2  0
 12 13  1  0
 13 14  1  0
 13  1  1  0
  1  2  2  0
  2  3  1  0
  3 21  1  0
 21 22  1  0
 22 23  2  0
 22 25  1  0
 25 26  2  0
 26 27  1  0
 27 28  2  0
 28 29  1  0
 28 30  1  0
 30 31  2  0
  3  4  2  0
  4  5  1  0
  5  6  2  0
  6  7  1  0
 13 15  1  0
 15 16  1  0
 16 17  2  0
 16 18  2  0
 16  9  1  0
  6  1  1  0
 31 25  1  0
 11 19  1  0
 11 20  1  0
 21 24  1  0
M  END
> <meeko>
{"is_sidechain": false}

> <source_group>
BACE1-476

> <source_system>
BACE1_verubecestat

> <source_run>
alternate_476_seed3301_ex32

> <source_seed>
3301

> <vina_pose_rank>
2

> <vina_affinity_kcal_mol>
-8.593

> <vina_rmsd_to_crystal_angstrom>
7.3158000000000003

> <minimizedAffinity>
-8.53589

> <CNNscore>
0.2032921165

> <CNNaffinity>
6.2734322548

> <CNN_VS>
1.2753393650

> <CNNaffinity_variance>
0.0044355621

$$$$
BACE1_verubecestat__alternate_476_seed3301_ex32__pose03


 31 33  0  0  0  0  0  0  0  0999 V2000
   26.9350   13.0670   22.9270 C   0  0  0  0  0  0  0  0  0  0  0  0
   25.8530   12.7030   23.7270 C   0  0  0  0  0  0  0  0  0  0  0  0
   25.6640   13.2190   24.9890 C   0  0  0  0  0  0  0  0  0  0  0  0
   26.5760   14.1190   25.5240 C   0  0  0  0  0  0  0  0  0  0  0  0
   27.6550   14.4950   24.7430 C   0  0  0  0  0  0  0  0  0  0  0  0
   27.8140   13.9940   23.4660 C   0  0  0  0  0  0  0  0  0  0  0  0
   28.8650   14.4010   22.7090 F   0  0  0  0  0  0  0  0  0  0  0  0
   23.1340   13.4900   20.1840 C   0  0  0  0  0  0  0  0  0  0  0  0
   24.5220   13.1210   20.5250 N   0  0  0  0  0  0  0  0  0  0  0  0
   24.9160   11.7970   20.8230 C   0  0  0  0  0  0  0  0  0  0  0  0
   23.9320   10.8660   20.6190 N   0  0  0  0  0  0  0  0  0  0  0  0
   26.1040   11.4710   21.2300 N   0  0  0  0  0  0  0  0  0  0  0  0
   27.1150   12.4820   21.5340 C   0  0  0  0  0  0  0  0  0  0  0  0
   28.4210   11.6830   21.4990 C   0  0  0  0  0  0  0  0  0  0  0  0
   27.1870   13.4990   20.4170 C   0  0  0  0  0  0  0  0  0  0  0  0
   25.6580   14.3910   20.2810 S   0  0  0  0  0  0  0  0  0  0  0  0
   25.5450   14.8090   18.8950 O   0  0  0  0  0  0  0  0  0  0  0  0
   25.4510   15.2550   21.4010 O   0  0  0  0  0  0  0  0  0  0  0  0
   24.1110    9.9150   20.7980 H   0  0  0  0  0  0  0  0  0  0  0  0
   23.0470   11.1480   20.2920 H   0  0  0  0  0  0  0  0  0  0  0  0
   24.5380   12.7680   25.6890 N   0  0  0  0  0  0  0  0  0  0  0  0
   23.2090   12.8300   25.3070 C   0  0  0  0  0  0  0  0  0  0  0  0
   22.7870   13.4220   24.3220 O   0  0  0  0  0  0  0  0  0  0  0  0
   24.7140   12.3530   26.5640 H   0  0  0  0  0  0  0  0  0  0  0  0
   22.2670   12.0770   26.1690 C   0  0  0  0  0  0  0  0  0  0  0  0
   21.1040   11.5530   25.6290 C   0  0  0  0  0  0  0  0  0  0  0  0
   20.2600   10.8610   26.4790 C   0  0  0  0  0  0  0  0  0  0  0  0
   20.5950   10.7120   27.8110 C   0  0  0  0  0  0  0  0  0  0  0  0
   19.8020   10.0570   28.6750 F   0  0  0  0  0  0  0  0  0  0  0  0
   21.7700   11.2740   28.2550 C   0  0  0  0  0  0  0  0  0  0  0  0
   22.6070   11.9560   27.4560 N   0  0  0  0  0  0  0  0  0  0  0  0
  8  9  1  0
  9 10  1  0
 10 11  1  0
 10 12  2  0
 12 13  1  0
 13 14  1  0
 13  1  1  0
  1  2  2  0
  2  3  1  0
  3 21  1  0
 21 22  1  0
 22 23  2  0
 22 25  1  0
 25 26  2  0
 26 27  1  0
 27 28  2  0
 28 29  1  0
 28 30  1  0
 30 31  2  0
  3  4  2  0
  4  5  1  0
  5  6  2  0
  6  7  1  0
 13 15  1  0
 15 16  1  0
 16 17  2  0
 16 18  2  0
 16  9  1  0
  6  1  1  0
 31 25  1  0
 11 19  1  0
 11 20  1  0
 21 24  1  0
M  END
> <meeko>
{"is_sidechain": false}

> <source_group>
BACE1-476

> <source_system>
BACE1_verubecestat

> <source_run>
alternate_476_seed3301_ex32

> <source_seed>
3301

> <vina_pose_rank>
3

> <vina_affinity_kcal_mol>
-8.5600000000000005

> <vina_rmsd_to_crystal_angstrom>
7.5369000000000002

> <minimizedAffinity>
-8.54134

> <CNNscore>
0.0297024678

> <CNNaffinity>
4.2688517570

> <CNN_VS>
0.1267954260

> <CNNaffinity_variance>
1.8432554007

$$$$
BACE1_verubecestat__alternate_476_seed3301_ex32__pose04


 31 33  0  0  0  0  0  0  0  0999 V2000
   26.1210   13.0460   21.7330 C   0  0  0  0  0  0  0  0  0  0  0  0
   25.3060   12.7930   22.8350 C   0  0  0  0  0  0  0  0  0  0  0  0
   24.6060   11.6170   22.9790 C   0  0  0  0  0  0  0  0  0  0  0  0
   24.6740   10.6340   21.9990 C   0  0  0  0  0  0  0  0  0  0  0  0
   25.4800   10.8670   20.8990 C   0  0  0  0  0  0  0  0  0  0  0  0
   26.2020   12.0380   20.7840 C   0  0  0  0  0  0  0  0  0  0  0  0
   27.0090   12.2300   19.7090 F   0  0  0  0  0  0  0  0  0  0  0  0
   28.7620   14.0810   25.4880 C   0  0  0  0  0  0  0  0  0  0  0  0
   28.2010   14.2680   24.1360 N   0  0  0  0  0  0  0  0  0  0  0  0
   27.1580   15.1780   23.8540 C   0  0  0  0  0  0  0  0  0  0  0  0
   26.8180   15.9780   24.9120 N   0  0  0  0  0  0  0  0  0  0  0  0
   26.5800   15.2780   22.6970 N   0  0  0  0  0  0  0  0  0  0  0  0
   26.8850   14.3550   21.6040 C   0  0  0  0  0  0  0  0  0  0  0  0
   26.3760   15.1050   20.3700 C   0  0  0  0  0  0  0  0  0  0  0  0
   28.3820   14.2110   21.4490 C   0  0  0  0  0  0  0  0  0  0  0  0
   29.0950   13.4730   22.8980 S   0  0  0  0  0  0  0  0  0  0  0  0
   30.4620   13.9550   22.9780 O   0  0  0  0  0  0  0  0  0  0  0  0
   28.7170   12.1010   23.0310 O   0  0  0  0  0  0  0  0  0  0  0  0
   26.1010   16.6460   24.8140 H   0  0  0  0  0  0  0  0  0  0  0  0
   27.2910   15.8870   25.7710 H   0  0  0  0  0  0  0  0  0  0  0  0
   23.8220   11.4900   24.1330 N   0  0  0  0  0  0  0  0  0  0  0  0
   22.8110   12.3230   24.5780 C   0  0  0  0  0  0  0  0  0  0  0  0
   22.5200   13.4040   24.0830 O   0  0  0  0  0  0  0  0  0  0  0  0
   24.0150   10.7080   24.6990 H   0  0  0  0  0  0  0  0  0  0  0  0
   22.0240   11.8070   25.7240 C   0  0  0  0  0  0  0  0  0  0  0  0
   20.7860   11.2280   25.5070 C   0  0  0  0  0  0  0  0  0  0  0  0
   20.0940   10.7650   26.6130 C   0  0  0  0  0  0  0  0  0  0  0  0
   20.6480   10.8890   27.8720 C   0  0  0  0  0  0  0  0  0  0  0  0
   20.0100   10.4630   28.9760 F   0  0  0  0  0  0  0  0  0  0  0  0
   21.8830   11.4850   27.9870 C   0  0  0  0  0  0  0  0  0  0  0  0
   22.5760   11.9490   26.9340 N   0  0  0  0  0  0  0  0  0  0  0  0
  8  9  1  0
  9 10  1  0
 10 11  1  0
 10 12  2  0
 12 13  1  0
 13 14  1  0
 13  1  1  0
  1  2  2  0
  2  3  1  0
  3 21  1  0
 21 22  1  0
 22 23  2  0
 22 25  1  0
 25 26  2  0
 26 27  1  0
 27 28  2  0
 28 29  1  0
 28 30  1  0
 30 31  2  0
  3  4  2  0
  4  5  1  0
  5  6  2  0
  6  7  1  0
 13 15  1  0
 15 16  1  0
 16 17  2  0
 16 18  2  0
 16  9  1  0
  6  1  1  0
 31 25  1  0
 11 19  1  0
 11 20  1  0
 21 24  1  0
M  END
> <meeko>
{"is_sidechain": false}

> <source_group>
BACE1-476

> <source_system>
BACE1_verubecestat

> <source_run>
alternate_476_seed3301_ex32

> <source_seed>
3301

> <vina_pose_rank>
4

> <vina_affinity_kcal_mol>
-8.3949999999999996

> <vina_rmsd_to_crystal_angstrom>
7.6268000000000002

> <minimizedAffinity>
-8.49261

> <CNNscore>
0.0351290181

> <CNNaffinity>
5.5400676727

> <CNN_VS>
0.1946171373

> <CNNaffinity_variance>
0.2752394378

$$$$
BACE1_verubecestat__alternate_476_seed3301_ex32__pose05


 31 33  0  0  0  0  0  0  0  0999 V2000
   26.1710   12.4740   21.1110 C   0  0  0  0  0  0  0  0  0  0  0  0
   27.0130   13.3550   21.7890 C   0  0  0  0  0  0  0  0  0  0  0  0
   28.3500   13.0920   21.9850 C   0  0  0  0  0  0  0  0  0  0  0  0
   28.9090   11.9080   21.5230 C   0  0  0  0  0  0  0  0  0  0  0  0
   28.0890   11.0230   20.8440 C   0  0  0  0  0  0  0  0  0  0  0  0
   26.7570   11.3140   20.6270 C   0  0  0  0  0  0  0  0  0  0  0  0
   25.9810   10.4430   19.9330 F   0  0  0  0  0  0  0  0  0  0  0  0
   23.3350   10.4550   24.2770 C   0  0  0  0  0  0  0  0  0  0  0  0
   23.6850   11.3040   23.1210 N   0  0  0  0  0  0  0  0  0  0  0  0
   23.4900   10.9010   21.7820 C   0  0  0  0  0  0  0  0  0  0  0  0
   22.8080    9.7200   21.6510 N   0  0  0  0  0  0  0  0  0  0  0  0
   23.8900   11.5860   20.7560 N   0  0  0  0  0  0  0  0  0  0  0  0
   24.6990   12.7950   20.9080 C   0  0  0  0  0  0  0  0  0  0  0  0
   24.5270   13.4940   19.5570 C   0  0  0  0  0  0  0  0  0  0  0  0
   24.0890   13.6990   21.9560 C   0  0  0  0  0  0  0  0  0  0  0  0
   24.1120   12.9160   23.5490 S   0  0  0  0  0  0  0  0  0  0  0  0
   22.9990   13.4710   24.2990 O   0  0  0  0  0  0  0  0  0  0  0  0
   25.4420   12.7940   24.0580 O   0  0  0  0  0  0  0  0  0  0  0  0
   22.6220    9.3560   20.7560 H   0  0  0  0  0  0  0  0  0  0  0  0
   22.5030    9.2360   22.4530 H   0  0  0  0  0  0  0  0  0  0  0  0
   29.0830   14.0590   22.6840 N   0  0  0  0  0  0  0  0  0  0  0  0
   29.3190   14.1370   24.0450 C   0  0  0  0  0  0  0  0  0  0  0  0
   28.8010   13.4210   24.8920 O   0  0  0  0  0  0  0  0  0  0  0  0
   29.4820   14.7740   22.1380 H   0  0  0  0  0  0  0  0  0  0  0  0
   30.3100   15.1600   24.4590 C   0  0  0  0  0  0  0  0  0  0  0  0
   29.8930   16.2930   25.1360 C   0  0  0  0  0  0  0  0  0  0  0  0
   30.8590   17.2150   25.4960 C   0  0  0  0  0  0  0  0  0  0  0  0
   32.1840   16.9830   25.1790 C   0  0  0  0  0  0  0  0  0  0  0  0
   33.1550   17.8540   25.5000 F   0  0  0  0  0  0  0  0  0  0  0  0
   32.5000   15.8300   24.4980 C   0  0  0  0  0  0  0  0  0  0  0  0
   31.5840   14.9190   24.1300 N   0  0  0  0  0  0  0  0  0  0  0  0
  8  9  1  0
  9 10  1  0
 10 11  1  0
 10 12  2  0
 12 13  1  0
 13 14  1  0
 13  1  1  0
  1  2  2  0
  2  3  1  0
  3 21  1  0
 21 22  1  0
 22 23  2  0
 22 25  1  0
 25 26  2  0
 26 27  1  0
 27 28  2  0
 28 29  1  0
 28 30  1  0
 30 31  2  0
  3  4  2  0
  4  5  1  0
  5  6  2  0
  6  7  1  0
 13 15  1  0
 15 16  1  0
 16 17  2  0
 16 18  2  0
 16  9  1  0
  6  1  1  0
 31 25  1  0
 11 19  1  0
 11 20  1  0
 21 24  1  0
M  END
> <meeko>
{"is_sidechain": false}

> <source_group>
BACE1-476

> <source_system>
BACE1_verubecestat

> <source_run>
alternate_476_seed3301_ex32

> <source_seed>
3301

> <vina_pose_rank>
5

> <vina_affinity_kcal_mol>
-8.3379999999999992

> <vina_rmsd_to_crystal_angstrom>
5.3131000000000004

> <minimizedAffinity>
-8.80924

> <CNNscore>
0.2249079943

> <CNNaffinity>
5.7759799957

> <CNN_VS>
1.2990640402

> <CNNaffinity_variance>
0.1688984782

$$$$
BACE1_verubecestat__alternate_476_seed3301_ex32__pose06


 31 33  0  0  0  0  0  0  0  0999 V2000
   20.9630   12.0820   27.4060 C   0  0  0  0  0  0  0  0  0  0  0  0
   21.5740   11.9940   26.1560 C   0  0  0  0  0  0  0  0  0  0  0  0
   22.7370   12.6660   25.8560 C   0  0  0  0  0  0  0  0  0  0  0  0
   23.3380   13.4880   26.8010 C   0  0  0  0  0  0  0  0  0  0  0  0
   22.7480   13.5840   28.0490 C   0  0  0  0  0  0  0  0  0  0  0  0
   21.5980   12.8790   28.3460 C   0  0  0  0  0  0  0  0  0  0  0  0
   21.0550   12.9680   29.5870 F   0  0  0  0  0  0  0  0  0  0  0  0
   17.0510   14.5560   26.5530 C   0  0  0  0  0  0  0  0  0  0  0  0
   17.8480   13.3770   26.9480 N   0  0  0  0  0  0  0  0  0  0  0  0
   18.0500   13.0020   28.2950 C   0  0  0  0  0  0  0  0  0  0  0  0
   17.3200   13.7340   29.1920 N   0  0  0  0  0  0  0  0  0  0  0  0
   18.8340   12.0360   28.6650 N   0  0  0  0  0  0  0  0  0  0  0  0
   19.6800   11.3240   27.7080 C   0  0  0  0  0  0  0  0  0  0  0  0
   20.0310   10.0340   28.4540 C   0  0  0  0  0  0  0  0  0  0  0  0
   18.8690   10.9270   26.4940 C   0  0  0  0  0  0  0  0  0  0  0  0
   18.2900   12.3650   25.6290 S   0  0  0  0  0  0  0  0  0  0  0  0
   17.0650   11.9760   24.9540 O   0  0  0  0  0  0  0  0  0  0  0  0
   19.3640   13.0700   25.0010 O   0  0  0  0  0  0  0  0  0  0  0  0
   17.3940   13.5470   30.1560 H   0  0  0  0  0  0  0  0  0  0  0  0
   16.7220   14.4480   28.8740 H   0  0  0  0  0  0  0  0  0  0  0  0
   23.2460   12.4940   24.5620 N   0  0  0  0  0  0  0  0  0  0  0  0
   23.0970   13.3240   23.4650 C   0  0  0  0  0  0  0  0  0  0  0  0
   22.3690   14.3070   23.4190 O   0  0  0  0  0  0  0  0  0  0  0  0
   23.7770   11.6780   24.4150 H   0  0  0  0  0  0  0  0  0  0  0  0
   23.9320   12.9760   22.2900 C   0  0  0  0  0  0  0  0  0  0  0  0
   23.3980   13.0530   21.0160 C   0  0  0  0  0  0  0  0  0  0  0  0
   24.2210   12.7150   19.9560 C   0  0  0  0  0  0  0  0  0  0  0  0
   25.5240   12.3220   20.1940 C   0  0  0  0  0  0  0  0  0  0  0  0
   26.3560   11.9750   19.1980 F   0  0  0  0  0  0  0  0  0  0  0  0
   25.9620   12.2700   21.4980 C   0  0  0  0  0  0  0  0  0  0  0  0
   25.1850   12.5870   22.5470 N   0  0  0  0  0  0  0  0  0  0  0  0
  8  9  1  0
  9 10  1  0
 10 11  1  0
 10 12  2  0
 12 13  1  0
 13 14  1  0
 13  1  1  0
  1  2  2  0
  2  3  1  0
  3 21  1  0
 21 22  1  0
 22 23  2  0
 22 25  1  0
 25 26  2  0
 26 27  1  0
 27 28  2  0
 28 29  1  0
 28 30  1  0
 30 31  2  0
  3  4  2  0
  4  5  1  0
  5  6  2  0
  6  7  1  0
 13 15  1  0
 15 16  1  0
 16 17  2  0
 16 18  2  0
 16  9  1  0
  6  1  1  0
 31 25  1  0
 11 19  1  0
 11 20  1  0
 21 24  1  0
M  END
> <meeko>
{"is_sidechain": false}

> <source_group>
BACE1-476

> <source_system>
BACE1_verubecestat

> <source_run>
alternate_476_seed3301_ex32

> <source_seed>
3301

> <vina_pose_rank>
6

> <vina_affinity_kcal_mol>
-8.3320000000000007

> <vina_rmsd_to_crystal_angstrom>
6.8754999999999997

> <minimizedAffinity>
-8.85110

> <CNNscore>
0.2766896486

> <CNNaffinity>
5.7853417397

> <CNN_VS>
1.6007441282

> <CNNaffinity_variance>
0.1773650199

$$$$
BACE1_verubecestat__alternate_476_seed3301_ex32__pose07


 31 33  0  0  0  0  0  0  0  0999 V2000
   26.8140   13.0520   23.0340 C   0  0  0  0  0  0  0  0  0  0  0  0
   25.6260   12.6450   23.6390 C   0  0  0  0  0  0  0  0  0  0  0  0
   25.2800   13.0300   24.9150 C   0  0  0  0  0  0  0  0  0  0  0  0
   26.1320   13.8350   25.6620 C   0  0  0  0  0  0  0  0  0  0  0  0
   27.3140   14.2510   25.0750 C   0  0  0  0  0  0  0  0  0  0  0  0
   27.6320   13.8830   23.7830 C   0  0  0  0  0  0  0  0  0  0  0  0
   28.7850   14.3290   23.2200 F   0  0  0  0  0  0  0  0  0  0  0  0
   23.2470   13.4160   19.9850 C   0  0  0  0  0  0  0  0  0  0  0  0
   24.6260   13.1290   20.4260 N   0  0  0  0  0  0  0  0  0  0  0  0
   25.1070   11.8200   20.6490 C   0  0  0  0  0  0  0  0  0  0  0  0
   24.2310   10.8360   20.2750 N   0  0  0  0  0  0  0  0  0  0  0  0
   26.2780   11.5550   21.1390 N   0  0  0  0  0  0  0  0  0  0  0  0
   27.1660   12.6110   21.6210 C   0  0  0  0  0  0  0  0  0  0  0  0
   28.5350   11.9250   21.6450 C   0  0  0  0  0  0  0  0  0  0  0  0
   27.2470   13.7270   20.6040 C   0  0  0  0  0  0  0  0  0  0  0  0
   25.6640   14.5030   20.3970 S   0  0  0  0  0  0  0  0  0  0  0  0
   25.6360   15.0340   19.0460 O   0  0  0  0  0  0  0  0  0  0  0  0
   25.2830   15.2430   21.5600 O   0  0  0  0  0  0  0  0  0  0  0  0
   24.4760    9.8890   20.3920 H   0  0  0  0  0  0  0  0  0  0  0  0
   23.3570   11.0740   19.8900 H   0  0  0  0  0  0  0  0  0  0  0  0
   24.0600   12.5490   25.4070 N   0  0  0  0  0  0  0  0  0  0  0  0
   23.2080   13.1470   26.3190 C   0  0  0  0  0  0  0  0  0  0  0  0
   23.4570   14.1630   26.9540 O   0  0  0  0  0  0  0  0  0  0  0  0
   23.7710   11.6750   25.0590 H   0  0  0  0  0  0  0  0  0  0  0  0
   21.8890   12.4880   26.4790 C   0  0  0  0  0  0  0  0  0  0  0  0
   21.7090   11.5330   27.4640 C   0  0  0  0  0  0  0  0  0  0  0  0
   20.4580   10.9490   27.5670 C   0  0  0  0  0  0  0  0  0  0  0  0
   19.4470   11.3310   26.7060 C   0  0  0  0  0  0  0  0  0  0  0  0
   18.2200   10.7860   26.7630 F   0  0  0  0  0  0  0  0  0  0  0  0
   19.7250   12.2860   25.7550 C   0  0  0  0  0  0  0  0  0  0  0  0
   20.9300   12.8660   25.6270 N   0  0  0  0  0  0  0  0  0  0  0  0
  8  9  1  0
  9 10  1  0
 10 11  1  0
 10 12  2  0
 12 13  1  0
 13 14  1  0
 13  1  1  0
  1  2  2  0
  2  3  1  0
  3 21  1  0
 21 22  1  0
 22 23  2  0
 22 25  1  0
 25 26  2  0
 26 27  1  0
 27 28  2  0
 28 29  1  0
 28 30  1  0
 30 31  2  0
  3  4  2  0
  4  5  1  0
  5  6  2  0
  6  7  1  0
 13 15  1  0
 15 16  1  0
 16 17  2  0
 16 18  2  0
 16  9  1  0
  6  1  1  0
 31 25  1  0
 11 19  1  0
 11 20  1  0
 21 24  1  0
M  END
> <meeko>
{"is_sidechain": false}

> <source_group>
BACE1-476

> <source_system>
BACE1_verubecestat

> <source_run>
alternate_476_seed3301_ex32

> <source_seed>
3301

> <vina_pose_rank>
7

> <vina_affinity_kcal_mol>
-8.2200000000000006

> <vina_rmsd_to_crystal_angstrom>
7.9076000000000004

> <minimizedAffinity>
-8.54200

> <CNNscore>
0.0171963144

> <CNNaffinity>
3.9796283245

> <CNN_VS>
0.0684349388

> <CNNaffinity_variance>
1.9017285109

$$$$
BACE1_verubecestat__alternate_476_seed3301_ex32__pose08


 31 33  0  0  0  0  0  0  0  0999 V2000
   26.4740   13.5930   22.7170 C   0  0  0  0  0  0  0  0  0  0  0  0
   25.6300   13.0230   23.6680 C   0  0  0  0  0  0  0  0  0  0  0  0
   24.2670   13.2120   23.6510 C   0  0  0  0  0  0  0  0  0  0  0  0
   23.6800   14.0110   22.6780 C   0  0  0  0  0  0  0  0  0  0  0  0
   24.5020   14.5820   21.7230 C   0  0  0  0  0  0  0  0  0  0  0  0
   25.8640   14.3570   21.7340 C   0  0  0  0  0  0  0  0  0  0  0  0
   26.6460   14.9060   20.7680 F   0  0  0  0  0  0  0  0  0  0  0  0
   28.8550   17.0010   24.9220 C   0  0  0  0  0  0  0  0  0  0  0  0
   28.6730   15.7220   24.2080 N   0  0  0  0  0  0  0  0  0  0  0  0
   28.9740   15.5550   22.8380 C   0  0  0  0  0  0  0  0  0  0  0  0
   29.5910   16.6380   22.2700 N   0  0  0  0  0  0  0  0  0  0  0  0
   28.7200   14.4730   22.1690 N   0  0  0  0  0  0  0  0  0  0  0  0
   27.9770   13.3620   22.7610 C   0  0  0  0  0  0  0  0  0  0  0  0
   28.3240   12.1890   21.8400 C   0  0  0  0  0  0  0  0  0  0  0  0
   28.5340   13.0330   24.1280 C   0  0  0  0  0  0  0  0  0  0  0  0
   28.3060   14.3960   25.2420 S   0  0  0  0  0  0  0  0  0  0  0  0
   29.3720   14.3090   26.2250 O   0  0  0  0  0  0  0  0  0  0  0  0
   26.9270   14.5860   25.5670 O   0  0  0  0  0  0  0  0  0  0  0  0
   29.8420   16.6170   21.3180 H   0  0  0  0  0  0  0  0  0  0  0  0
   29.7850   17.4360   22.8130 H   0  0  0  0  0  0  0  0  0  0  0  0
   23.5330   12.5850   24.6670 N   0  0  0  0  0  0  0  0  0  0  0  0
   23.2810   13.0410   25.9480 C   0  0  0  0  0  0  0  0  0  0  0  0
   23.7820   14.0380   26.4530 O   0  0  0  0  0  0  0  0  0  0  0  0
   23.1470   11.7080   24.4390 H   0  0  0  0  0  0  0  0  0  0  0  0
   22.2940   12.2480   26.7200 C   0  0  0  0  0  0  0  0  0  0  0  0
   21.1000   11.8680   26.1310 C   0  0  0  0  0  0  0  0  0  0  0  0
   20.2150   11.1300   26.8980 C   0  0  0  0  0  0  0  0  0  0  0  0
   20.5430   10.7990   28.1980 C   0  0  0  0  0  0  0  0  0  0  0  0
   19.7120   10.0920   28.9840 F   0  0  0  0  0  0  0  0  0  0  0  0
   21.7520   11.2270   28.6980 C   0  0  0  0  0  0  0  0  0  0  0  0
   22.6280   11.9490   27.9800 N   0  0  0  0  0  0  0  0  0  0  0  0
  8  9  1  0
  9 10  1  0
 10 11  1  0
 10 12  2  0
 12 13  1  0
 13 14  1  0
 13  1  1  0
  1  2  2  0
  2  3  1  0
  3 21  1  0
 21 22  1  0
 22 23  2  0
 22 25  1  0
 25 26  2  0
 26 27  1  0
 27 28  2  0
 28 29  1  0
 28 30  1  0
 30 31  2  0
  3  4  2  0
  4  5  1  0
  5  6  2  0
  6  7  1  0
 13 15  1  0
 15 16  1  0
 16 17  2  0
 16 18  2  0
 16  9  1  0
  6  1  1  0
 31 25  1  0
 11 19  1  0
 11 20  1  0
 21 24  1  0
M  END
> <meeko>
{"is_sidechain": false}

> <source_group>
BACE1-476

> <source_system>
BACE1_verubecestat

> <source_run>
alternate_476_seed3301_ex32

> <source_seed>
3301

> <vina_pose_rank>
8

> <vina_affinity_kcal_mol>
-8.1460000000000008

> <vina_rmsd_to_crystal_angstrom>
8.2113999999999994

> <minimizedAffinity>
-8.61168

> <CNNscore>
0.0601573065

> <CNNaffinity>
4.5661110878

> <CNN_VS>
0.2746849358

> <CNNaffinity_variance>
1.2081714869

$$$$
BACE1_verubecestat__alternate_476_seed3301_ex32__pose09


 31 33  0  0  0  0  0  0  0  0999 V2000
   25.5980   11.7200   21.2770 C   0  0  0  0  0  0  0  0  0  0  0  0
   25.0980   11.8470   22.5720 C   0  0  0  0  0  0  0  0  0  0  0  0
   23.8400   11.4110   22.9220 C   0  0  0  0  0  0  0  0  0  0  0  0
   23.0040   10.8400   21.9710 C   0  0  0  0  0  0  0  0  0  0  0  0
   23.4850   10.7040   20.6800 C   0  0  0  0  0  0  0  0  0  0  0  0
   24.7610   11.1160   20.3520 C   0  0  0  0  0  0  0  0  0  0  0  0
   25.2200   10.9430   19.0850 F   0  0  0  0  0  0  0  0  0  0  0  0
   25.9090   16.3910   20.7910 C   0  0  0  0  0  0  0  0  0  0  0  0
   26.4000   14.9990   20.8330 N   0  0  0  0  0  0  0  0  0  0  0  0
   26.6780   14.2450   19.6720 C   0  0  0  0  0  0  0  0  0  0  0  0
   26.5980   14.9650   18.5100 N   0  0  0  0  0  0  0  0  0  0  0  0
   27.0050   12.9900   19.6870 N   0  0  0  0  0  0  0  0  0  0  0  0
   26.9940   12.2090   20.9230 C   0  0  0  0  0  0  0  0  0  0  0  0
   27.8660   11.0000   20.5730 C   0  0  0  0  0  0  0  0  0  0  0  0
   27.7060   12.9650   22.0220 C   0  0  0  0  0  0  0  0  0  0  0  0
   26.8440   14.4680   22.4100 S   0  0  0  0  0  0  0  0  0  0  0  0
   27.8380   15.3980   22.9130 O   0  0  0  0  0  0  0  0  0  0  0  0
   25.5910   14.2070   23.0480 O   0  0  0  0  0  0  0  0  0  0  0  0
   26.7750   14.5270   17.6460 H   0  0  0  0  0  0  0  0  0  0  0  0
   26.3650   15.9210   18.5380 H   0  0  0  0  0  0  0  0  0  0  0  0
   23.4580   11.6000   24.2570 N   0  0  0  0  0  0  0  0  0  0  0  0
   22.6310   12.5770   24.7810 C   0  0  0  0  0  0  0  0  0  0  0  0
   22.1910   13.5360   24.1600 O   0  0  0  0  0  0  0  0  0  0  0  0
   23.8260   10.9550   24.9030 H   0  0  0  0  0  0  0  0  0  0  0  0
   22.2480   12.3870   26.2010 C   0  0  0  0  0  0  0  0  0  0  0  0
   21.6020   11.2270   26.5930 C   0  0  0  0  0  0  0  0  0  0  0  0
   21.2660   11.1030   27.9300 C   0  0  0  0  0  0  0  0  0  0  0  0
   21.5810   12.1160   28.8150 C   0  0  0  0  0  0  0  0  0  0  0  0
   21.2660   12.0440   30.1200 F   0  0  0  0  0  0  0  0  0  0  0  0
   22.2190   13.2340   28.3290 C   0  0  0  0  0  0  0  0  0  0  0  0
   22.5530   13.3860   27.0370 N   0  0  0  0  0  0  0  0  0  0  0  0
  8  9  1  0
  9 10  1  0
 10 11  1  0
 10 12  2  0
 12 13  1  0
 13 14  1  0
 13  1  1  0
  1  2  2  0
  2  3  1  0
  3 21  1  0
 21 22  1  0
 22 23  2  0
 22 25  1  0
 25 26  2  0
 26 27  1  0
 27 28  2  0
 28 29  1  0
 28 30  1  0
 30 31  2  0
  3  4  2  0
  4  5  1  0
  5  6  2  0
  6  7  1  0
 13 15  1  0
 15 16  1  0
 16 17  2  0
 16 18  2  0
 16  9  1  0
  6  1  1  0
 31 25  1  0
 11 19  1  0
 11 20  1  0
 21 24  1  0
M  END
> <meeko>
{"is_sidechain": false}

> <source_group>
BACE1-476

> <source_system>
BACE1_verubecestat

> <source_run>
alternate_476_seed3301_ex32

> <source_seed>
3301

> <vina_pose_rank>
9

> <vina_affinity_kcal_mol>
-7.9359999999999999

> <vina_rmsd_to_crystal_angstrom>
7.3213999999999997

> <minimizedAffinity>
-8.89372

> <CNNscore>
0.4006732404

> <CNNaffinity>
6.5187230110

> <CNN_VS>
2.6118779182

> <CNNaffinity_variance>
0.0125699053

$$$$
BACE1_verubecestat__alternate_476_seed3301_ex32__pose10


 31 33  0  0  0  0  0  0  0  0999 V2000
   19.7330   11.4420   27.4210 C   0  0  0  0  0  0  0  0  0  0  0  0
   18.7750   10.9050   26.5630 C   0  0  0  0  0  0  0  0  0  0  0  0
   17.5570   11.5090   26.3480 C   0  0  0  0  0  0  0  0  0  0  0  0
   17.2280   12.6840   27.0110 C   0  0  0  0  0  0  0  0  0  0  0  0
   18.1680   13.2340   27.8640 C   0  0  0  0  0  0  0  0  0  0  0  0
   19.3990   12.6340   28.0450 C   0  0  0  0  0  0  0  0  0  0  0  0
   20.3150   13.2100   28.8660 F   0  0  0  0  0  0  0  0  0  0  0  0
   22.5610   11.5770   23.6620 C   0  0  0  0  0  0  0  0  0  0  0  0
   22.1690   11.2610   25.0490 N   0  0  0  0  0  0  0  0  0  0  0  0
   21.7610    9.9730   25.4610 C   0  0  0  0  0  0  0  0  0  0  0  0
   21.9070    9.0110   24.4970 N   0  0  0  0  0  0  0  0  0  0  0  0
   21.3110    9.7020   26.6470 N   0  0  0  0  0  0  0  0  0  0  0  0
   21.0710   10.7530   27.6350 C   0  0  0  0  0  0  0  0  0  0  0  0
   21.0230    9.9780   28.9550 C   0  0  0  0  0  0  0  0  0  0  0  0
   22.2650   11.6790   27.7090 C   0  0  0  0  0  0  0  0  0  0  0  0
   22.4950   12.5290   26.1680 S   0  0  0  0  0  0  0  0  0  0  0  0
   23.9110   12.8350   26.0710 O   0  0  0  0  0  0  0  0  0  0  0  0
   21.4500   13.4750   25.9260 O   0  0  0  0  0  0  0  0  0  0  0  0
   21.6500    8.0800   24.6890 H   0  0  0  0  0  0  0  0  0  0  0  0
   22.2690    9.2490   23.6130 H   0  0  0  0  0  0  0  0  0  0  0  0
   16.6840   10.8630   25.4620 N   0  0  0  0  0  0  0  0  0  0  0  0
   15.5630   11.3790   24.8360 C   0  0  0  0  0  0  0  0  0  0  0  0
   15.0720   12.4770   25.0620 O   0  0  0  0  0  0  0  0  0  0  0  0
   16.8950    9.9230   25.2600 H   0  0  0  0  0  0  0  0  0  0  0  0
   14.9670   10.5110   23.7910 C   0  0  0  0  0  0  0  0  0  0  0  0
   13.7760   10.8760   23.1870 C   0  0  0  0  0  0  0  0  0  0  0  0
   13.2640   10.0290   22.2200 C   0  0  0  0  0  0  0  0  0  0  0  0
   13.9430    8.8710   21.8900 C   0  0  0  0  0  0  0  0  0  0  0  0
   13.4790    8.0140   20.9650 F   0  0  0  0  0  0  0  0  0  0  0  0
   15.1170    8.5920   22.5510 C   0  0  0  0  0  0  0  0  0  0  0  0
   15.6360    9.3910   23.4970 N   0  0  0  0  0  0  0  0  0  0  0  0
  8  9  1  0
  9 10  1  0
 10 11  1  0
 10 12  2  0
 12 13  1  0
 13 14  1  0
 13  1  1  0
  1  2  2  0
  2  3  1  0
  3 21  1  0
 21 22  1  0
 22 23  2  0
 22 25  1  0
 25 26  2  0
 26 27  1  0
 27 28  2  0
 28 29  1  0
 28 30  1  0
 30 31  2  0
  3  4  2  0
  4  5  1  0
  5  6  2  0
  6  7  1  0
 13 15  1  0
 15 16  1  0
 16 17  2  0
 16 18  2  0
 16  9  1  0
  6  1  1  0
 31 25  1  0
 11 19  1  0
 11 20  1  0
 21 24  1  0
M  END
> <meeko>
{"is_sidechain": false}

> <source_group>
BACE1-476

> <source_system>
BACE1_verubecestat

> <source_run>
alternate_476_seed3301_ex32

> <source_seed>
3301

> <vina_pose_rank>
10

> <vina_affinity_kcal_mol>
-7.6879999999999997

> <vina_rmsd_to_crystal_angstrom>
10.4925

> <minimizedAffinity>
-8.08060

> <CNNscore>
0.6301097870

> <CNNaffinity>
6.4866766930

> <CNN_VS>
4.0873184204

> <CNNaffinity_variance>
0.0083168112

$$$$
BACE1_verubecestat__alternate_476_seed3301_ex32__pose11


 31 33  0  0  0  0  0  0  0  0999 V2000
   25.9070   14.0000   22.8410 C   0  0  0  0  0  0  0  0  0  0  0  0
   24.8590   13.9350   23.7580 C   0  0  0  0  0  0  0  0  0  0  0  0
   25.0730   13.8500   25.1150 C   0  0  0  0  0  0  0  0  0  0  0  0
   26.3650   13.8030   25.6220 C   0  0  0  0  0  0  0  0  0  0  0  0
   27.4180   13.8690   24.7270 C   0  0  0  0  0  0  0  0  0  0  0  0
   27.1880   13.9870   23.3700 C   0  0  0  0  0  0  0  0  0  0  0  0
   28.2390   14.0800   22.5150 F   0  0  0  0  0  0  0  0  0  0  0  0
   25.1340    9.8410   20.7770 C   0  0  0  0  0  0  0  0  0  0  0  0
   25.2590   11.3100   20.8560 N   0  0  0  0  0  0  0  0  0  0  0  0
   26.4010   12.0110   20.4080 C   0  0  0  0  0  0  0  0  0  0  0  0
   27.3140   11.2260   19.7560 N   0  0  0  0  0  0  0  0  0  0  0  0
   26.5740   13.2870   20.5680 N   0  0  0  0  0  0  0  0  0  0  0  0
   25.6390   14.0970   21.3470 C   0  0  0  0  0  0  0  0  0  0  0  0
   25.9480   15.5220   20.8810 C   0  0  0  0  0  0  0  0  0  0  0  0
   24.2170   13.7930   20.9310 C   0  0  0  0  0  0  0  0  0  0  0  0
   23.8010   12.1080   21.3030 S   0  0  0  0  0  0  0  0  0  0  0  0
   22.7830   11.7110   20.3460 O   0  0  0  0  0  0  0  0  0  0  0  0
   23.7080   11.8870   22.7130 O   0  0  0  0  0  0  0  0  0  0  0  0
   28.1440   11.6240   19.4060 H   0  0  0  0  0  0  0  0  0  0  0  0
   27.1410   10.2640   19.6380 H   0  0  0  0  0  0  0  0  0  0  0  0
   23.9330   13.7890   25.9270 N   0  0  0  0  0  0  0  0  0  0  0  0
   23.2110   12.6720   26.3090 C   0  0  0  0  0  0  0  0  0  0  0  0
   23.3870   11.5400   25.8800 O   0  0  0  0  0  0  0  0  0  0  0  0
   23.6040   14.6510   26.2710 H   0  0  0  0  0  0  0  0  0  0  0  0
   22.1780   12.9100   27.3460 C   0  0  0  0  0  0  0  0  0  0  0  0
   22.4990   13.6170   28.4920 C   0  0  0  0  0  0  0  0  0  0  0  0
   21.4980   13.8070   29.4280 C   0  0  0  0  0  0  0  0  0  0  0  0
   20.2340   13.3010   29.1950 C   0  0  0  0  0  0  0  0  0  0  0  0
   19.2320   13.4520   30.0790 F   0  0  0  0  0  0  0  0  0  0  0  0
   20.0130   12.6050   28.0280 C   0  0  0  0  0  0  0  0  0  0  0  0
   20.9660   12.4000   27.1040 N   0  0  0  0  0  0  0  0  0  0  0  0
  8  9  1  0
  9 10  1  0
 10 11  1  0
 10 12  2  0
 12 13  1  0
 13 14  1  0
 13  1  1  0
  1  2  2  0
  2  3  1  0
  3 21  1  0
 21 22  1  0
 22 23  2  0
 22 25  1  0
 25 26  2  0
 26 27  1  0
 27 28  2  0
 28 29  1  0
 28 30  1  0
 30 31  2  0
  3  4  2  0
  4  5  1  0
  5  6  2  0
  6  7  1  0
 13 15  1  0
 15 16  1  0
 16 17  2  0
 16 18  2  0
 16  9  1  0
  6  1  1  0
 31 25  1  0
 11 19  1  0
 11 20  1  0
 21 24  1  0
M  END
> <meeko>
{"is_sidechain": false}

> <source_group>
BACE1-476

> <source_system>
BACE1_verubecestat

> <source_run>
alternate_476_seed3301_ex32

> <source_seed>
3301

> <vina_pose_rank>
11

> <vina_affinity_kcal_mol>
-7.5259999999999998

> <vina_rmsd_to_crystal_angstrom>
7.9364999999999997

> <minimizedAffinity>
-8.24882

> <CNNscore>
0.0216098372

> <CNNaffinity>
3.9523975849

> <CNN_VS>
0.0854106694

> <CNNaffinity_variance>
1.8519674540

$$$$
BACE1_verubecestat__alternate_476_seed3301_ex32__pose12


 31 33  0  0  0  0  0  0  0  0999 V2000
   26.0760   12.7160   21.3570 C   0  0  0  0  0  0  0  0  0  0  0  0
   26.5900   13.5190   22.3740 C   0  0  0  0  0  0  0  0  0  0  0  0
   27.8700   13.3660   22.8580 C   0  0  0  0  0  0  0  0  0  0  0  0
   28.6990   12.3720   22.3520 C   0  0  0  0  0  0  0  0  0  0  0  0
   28.2060   11.5680   21.3400 C   0  0  0  0  0  0  0  0  0  0  0  0
   26.9310   11.7540   20.8430 C   0  0  0  0  0  0  0  0  0  0  0  0
   26.4830   10.9700   19.8290 F   0  0  0  0  0  0  0  0  0  0  0  0
   22.8190   10.3830   23.8270 C   0  0  0  0  0  0  0  0  0  0  0  0
   23.3320   11.2870   22.7780 N   0  0  0  0  0  0  0  0  0  0  0  0
   23.4660   10.9000   21.4260 C   0  0  0  0  0  0  0  0  0  0  0  0
   22.9370    9.6680   21.1460 N   0  0  0  0  0  0  0  0  0  0  0  0
   24.0140   11.6420   20.5140 N   0  0  0  0  0  0  0  0  0  0  0  0
   24.6590   12.9120   20.8420 C   0  0  0  0  0  0  0  0  0  0  0  0
   24.7190   13.6260   19.4890 C   0  0  0  0  0  0  0  0  0  0  0  0
   23.7600   13.7340   21.7380 C   0  0  0  0  0  0  0  0  0  0  0  0
   23.5100   12.9190   23.2950 S   0  0  0  0  0  0  0  0  0  0  0  0
   22.2170   13.3570   23.7890 O   0  0  0  0  0  0  0  0  0  0  0  0
   24.7060   12.9010   24.0790 O   0  0  0  0  0  0  0  0  0  0  0  0
   22.9810    9.3110   20.2300 H   0  0  0  0  0  0  0  0  0  0  0  0
   22.5120    9.1400   21.8600 H   0  0  0  0  0  0  0  0  0  0  0  0
   28.2620   14.2370   23.8830 N   0  0  0  0  0  0  0  0  0  0  0  0
   29.1410   15.3020   23.8130 C   0  0  0  0  0  0  0  0  0  0  0  0
   29.8330   15.5820   22.8420 O   0  0  0  0  0  0  0  0  0  0  0  0
   27.8600   14.0680   24.7660 H   0  0  0  0  0  0  0  0  0  0  0  0
   29.1890   16.1640   25.0190 C   0  0  0  0  0  0  0  0  0  0  0  0
   28.9310   15.6230   26.2660 C   0  0  0  0  0  0  0  0  0  0  0  0
   28.9870   16.4730   27.3560 C   0  0  0  0  0  0  0  0  0  0  0  0
   29.2960   17.8070   27.1730 C   0  0  0  0  0  0  0  0  0  0  0  0
   29.3530   18.6720   28.2000 F   0  0  0  0  0  0  0  0  0  0  0  0
   29.5310   18.2540   25.8920 C   0  0  0  0  0  0  0  0  0  0  0  0
   29.4780   17.4540   24.8150 N   0  0  0  0  0  0  0  0  0  0  0  0
  8  9  1  0
  9 10  1  0
 10 11  1  0
 10 12  2  0
 12 13  1  0
 13 14  1  0
 13  1  1  0
  1  2  2  0
  2  3  1  0
  3 21  1  0
 21 22  1  0
 22 23  2  0
 22 25  1  0
 25 26  2  0
 26 27  1  0
 27 28  2  0
 28 29  1  0
 28 30  1  0
 30 31  2  0
  3  4  2  0
  4  5  1  0
  5  6  2  0
  6  7  1  0
 13 15  1  0
 15 16  1  0
 16 17  2  0
 16 18  2  0
 16  9  1  0
  6  1  1  0
 31 25  1  0
 11 19  1  0
 11 20  1  0
 21 24  1  0
M  END
> <meeko>
{"is_sidechain": false}

> <source_group>
BACE1-476

> <source_system>
BACE1_verubecestat

> <source_run>
alternate_476_seed3301_ex32

> <source_seed>
3301

> <vina_pose_rank>
12

> <vina_affinity_kcal_mol>
-7.4779999999999998

> <vina_rmsd_to_crystal_angstrom>
5.9020000000000001

> <minimizedAffinity>
-8.18572

> <CNNscore>
0.1180819422

> <CNNaffinity>
5.2725362778

> <CNN_VS>
0.6225913167

> <CNNaffinity_variance>
0.4762080610

$$$$
BACE1_verubecestat__alternate_476_seed3301_ex32__pose13


 31 33  0  0  0  0  0  0  0  0999 V2000
   23.9500   13.6260   21.8400 C   0  0  0  0  0  0  0  0  0  0  0  0
   23.1830   13.1240   22.8890 C   0  0  0  0  0  0  0  0  0  0  0  0
   23.3170   13.5770   24.1820 C   0  0  0  0  0  0  0  0  0  0  0  0
   24.2550   14.5540   24.4910 C   0  0  0  0  0  0  0  0  0  0  0  0
   25.0230   15.0670   23.4610 C   0  0  0  0  0  0  0  0  0  0  0  0
   24.8560   14.6250   22.1630 C   0  0  0  0  0  0  0  0  0  0  0  0
   25.6020   15.1650   21.1660 F   0  0  0  0  0  0  0  0  0  0  0  0
   27.1730   10.4370   20.5780 C   0  0  0  0  0  0  0  0  0  0  0  0
   25.9790   11.2900   20.4180 N   0  0  0  0  0  0  0  0  0  0  0  0
   25.9850   12.4910   19.6740 C   0  0  0  0  0  0  0  0  0  0  0  0
   27.1500   12.7150   18.9890 N   0  0  0  0  0  0  0  0  0  0  0  0
   24.9780   13.3070   19.6120 N   0  0  0  0  0  0  0  0  0  0  0  0
   23.7770   13.1060   20.4210 C   0  0  0  0  0  0  0  0  0  0  0  0
   22.7330   13.9670   19.7040 C   0  0  0  0  0  0  0  0  0  0  0  0
   23.3140   11.6700   20.3170 C   0  0  0  0  0  0  0  0  0  0  0  0
   24.5280   10.5700   21.0000 S   0  0  0  0  0  0  0  0  0  0  0  0
   24.3720    9.3010   20.3110 O   0  0  0  0  0  0  0  0  0  0  0  0
   24.6240   10.7060   22.4200 O   0  0  0  0  0  0  0  0  0  0  0  0
   27.2500   13.5260   18.4410 H   0  0  0  0  0  0  0  0  0  0  0  0
   27.8860   12.0640   19.0450 H   0  0  0  0  0  0  0  0  0  0  0  0
   22.4860   12.9870   25.1440 N   0  0  0  0  0  0  0  0  0  0  0  0
   22.7060   11.8310   25.8720 C   0  0  0  0  0  0  0  0  0  0  0  0
   23.6310   11.0500   25.6920 O   0  0  0  0  0  0  0  0  0  0  0  0
   21.6390   13.4550   25.3240 H   0  0  0  0  0  0  0  0  0  0  0  0
   21.7370   11.5790   26.9660 C   0  0  0  0  0  0  0  0  0  0  0  0
   21.9920   12.0600   28.2390 C   0  0  0  0  0  0  0  0  0  0  0  0
   21.0560   11.7940   29.2220 C   0  0  0  0  0  0  0  0  0  0  0  0
   19.9170   11.0750   28.9120 C   0  0  0  0  0  0  0  0  0  0  0  0
   18.9850   10.7850   29.8350 F   0  0  0  0  0  0  0  0  0  0  0  0
   19.7550   10.6340   27.6180 C   0  0  0  0  0  0  0  0  0  0  0  0
   20.6490   10.8720   26.6440 N   0  0  0  0  0  0  0  0  0  0  0  0
  8  9  1  0
  9 10  1  0
 10 11  1  0
 10 12  2  0
 12 13  1  0
 13 14  1  0
 13  1  1  0
  1  2  2  0
  2  3  1  0
  3 21  1  0
 21 22  1  0
 22 23  2  0
 22 25  1  0
 25 26  2  0
 26 27  1  0
 27 28  2  0
 28 29  1  0
 28 30  1  0
 30 31  2  0
  3  4  2  0
  4  5  1  0
  5  6  2  0
  6  7  1  0
 13 15  1  0
 15 16  1  0
 16 17  2  0
 16 18  2  0
 16  9  1  0
  6  1  1  0
 31 25  1  0
 11 19  1  0
 11 20  1  0
 21 24  1  0
M  END
> <meeko>
{"is_sidechain": false}

> <source_group>
BACE1-476

> <source_system>
BACE1_verubecestat

> <source_run>
alternate_476_seed3301_ex32

> <source_seed>
3301

> <vina_pose_rank>
13

> <vina_affinity_kcal_mol>
-7.468

> <vina_rmsd_to_crystal_angstrom>
7.5331000000000001

> <minimizedAffinity>
-7.93790

> <CNNscore>
0.0754593834

> <CNNaffinity>
4.9222888947

> <CNN_VS>
0.3714328706

> <CNNaffinity_variance>
1.2092359066

$$$$
BACE1_verubecestat__alternate_476_seed3301_ex32__pose14


 31 33  0  0  0  0  0  0  0  0999 V2000
   26.9390   14.1700   23.2300 C   0  0  0  0  0  0  0  0  0  0  0  0
   25.6170   13.7680   23.4130 C   0  0  0  0  0  0  0  0  0  0  0  0
   25.0420   13.6710   24.6600 C   0  0  0  0  0  0  0  0  0  0  0  0
   25.7840   13.9540   25.8000 C   0  0  0  0  0  0  0  0  0  0  0  0
   27.0980   14.3570   25.6370 C   0  0  0  0  0  0  0  0  0  0  0  0
   27.6510   14.4820   24.3780 C   0  0  0  0  0  0  0  0  0  0  0  0
   28.9330   14.9080   24.2450 F   0  0  0  0  0  0  0  0  0  0  0  0
   28.8900   10.1650   21.7120 C   0  0  0  0  0  0  0  0  0  0  0  0
   28.4550   11.5730   21.6320 N   0  0  0  0  0  0  0  0  0  0  0  0
   29.3400   12.6630   21.7860 C   0  0  0  0  0  0  0  0  0  0  0  0
   30.6580   12.3010   21.8650 N   0  0  0  0  0  0  0  0  0  0  0  0
   28.9590   13.9030   21.8270 N   0  0  0  0  0  0  0  0  0  0  0  0
   27.5440   14.2710   21.8390 C   0  0  0  0  0  0  0  0  0  0  0  0
   27.5700   15.7430   21.4160 C   0  0  0  0  0  0  0  0  0  0  0  0
   26.8020   13.5130   20.7600 C   0  0  0  0  0  0  0  0  0  0  0  0
   26.8340   11.7680   21.0840 S   0  0  0  0  0  0  0  0  0  0  0  0
   26.7330   11.1060   19.7960 O   0  0  0  0  0  0  0  0  0  0  0  0
   26.0440   11.4290   22.2270 O   0  0  0  0  0  0  0  0  0  0  0  0
   31.3530   12.9910   21.9730 H   0  0  0  0  0  0  0  0  0  0  0  0
   30.9120   11.3510   21.8120 H   0  0  0  0  0  0  0  0  0  0  0  0
   23.7060   13.2530   24.7040 N   0  0  0  0  0  0  0  0  0  0  0  0
   23.2090   12.0020   25.0270 C   0  0  0  0  0  0  0  0  0  0  0  0
   23.8880   11.0000   25.2060 O   0  0  0  0  0  0  0  0  0  0  0  0
   23.0350   13.9360   24.4770 H   0  0  0  0  0  0  0  0  0  0  0  0
   21.7370   11.9290   25.1910 C   0  0  0  0  0  0  0  0  0  0  0  0
   21.1280   10.7090   25.4280 C   0  0  0  0  0  0  0  0  0  0  0  0
   19.7520   10.6980   25.5710 C   0  0  0  0  0  0  0  0  0  0  0  0
   19.0410   11.8790   25.4790 C   0  0  0  0  0  0  0  0  0  0  0  0
   17.7040   11.9170   25.6020 F   0  0  0  0  0  0  0  0  0  0  0  0
   19.7360   13.0420   25.2350 C   0  0  0  0  0  0  0  0  0  0  0  0
   21.0700   13.0830   25.0860 N   0  0  0  0  0  0  0  0  0  0  0  0
  8  9  1  0
  9 10  1  0
 10 11  1  0
 10 12  2  0
 12 13  1  0
 13 14  1  0
 13  1  1  0
  1  2  2  0
  2  3  1  0
  3 21  1  0
 21 22  1  0
 22 23  2  0
 22 25  1  0
 25 26  2  0
 26 27  1  0
 27 28  2  0
 28 29  1  0
 28 30  1  0
 30 31  2  0
  3  4  2  0
  4  5  1  0
  5  6  2  0
  6  7  1  0
 13 15  1  0
 15 16  1  0
 16 17  2  0
 16 18  2  0
 16  9  1  0
  6  1  1  0
 31 25  1  0
 11 19  1  0
 11 20  1  0
 21 24  1  0
M  END
> <meeko>
{"is_sidechain": false}

> <source_group>
BACE1-476

> <source_system>
BACE1_verubecestat

> <source_run>
alternate_476_seed3301_ex32

> <source_seed>
3301

> <vina_pose_rank>
14

> <vina_affinity_kcal_mol>
-7.3019999999999996

> <vina_rmsd_to_crystal_angstrom>
8.3539999999999992

> <minimizedAffinity>
-7.88604

> <CNNscore>
0.0155633474

> <CNNaffinity>
4.0154757500

> <CNN_VS>
0.0624942444

> <CNNaffinity_variance>
1.4131654501

$$$$
BACE1_verubecestat__alternate_476_seed3301_ex32__pose15


 31 33  0  0  0  0  0  0  0  0999 V2000
   27.4390   14.3020   22.6800 C   0  0  0  0  0  0  0  0  0  0  0  0
   26.3030   13.7820   23.2970 C   0  0  0  0  0  0  0  0  0  0  0  0
   25.0360   13.9790   22.7950 C   0  0  0  0  0  0  0  0  0  0  0  0
   24.8450   14.7370   21.6470 C   0  0  0  0  0  0  0  0  0  0  0  0
   25.9620   15.2590   21.0190 C   0  0  0  0  0  0  0  0  0  0  0  0
   27.2290   15.0260   21.5160 C   0  0  0  0  0  0  0  0  0  0  0  0
   28.3110   15.5250   20.8650 F   0  0  0  0  0  0  0  0  0  0  0  0
   29.0490   17.8730   25.2890 C   0  0  0  0  0  0  0  0  0  0  0  0
   29.0740   16.5370   24.6610 N   0  0  0  0  0  0  0  0  0  0  0  0
   29.8200   16.2470   23.4970 C   0  0  0  0  0  0  0  0  0  0  0  0
   30.6360   17.2690   23.0910 N   0  0  0  0  0  0  0  0  0  0  0  0
   29.7690   15.1120   22.8710 N   0  0  0  0  0  0  0  0  0  0  0  0
   28.8250   14.0640   23.2580 C   0  0  0  0  0  0  0  0  0  0  0  0
   29.4220   12.8100   22.6110 C   0  0  0  0  0  0  0  0  0  0  0  0
   28.8680   13.8530   24.7550 C   0  0  0  0  0  0  0  0  0  0  0  0
   28.3250   15.3110   25.6090 S   0  0  0  0  0  0  0  0  0  0  0  0
   28.9850   15.3040   26.9020 O   0  0  0  0  0  0  0  0  0  0  0  0
   26.9260   15.5420   25.4220 O   0  0  0  0  0  0  0  0  0  0  0  0
   31.1960   17.1620   22.2890 H   0  0  0  0  0  0  0  0  0  0  0  0
   30.6620   18.1110   23.6010 H   0  0  0  0  0  0  0  0  0  0  0  0
   23.9800   13.4040   23.5130 N   0  0  0  0  0  0  0  0  0  0  0  0
   23.3630   12.1840   23.3000 C   0  0  0  0  0  0  0  0  0  0  0  0
   23.5670   11.4490   22.3430 O   0  0  0  0  0  0  0  0  0  0  0  0
   23.6320   13.9360   24.2650 H   0  0  0  0  0  0  0  0  0  0  0  0
   22.4160   11.7600   24.3600 C   0  0  0  0  0  0  0  0  0  0  0  0
   21.5650   12.6870   24.9370 C   0  0  0  0  0  0  0  0  0  0  0  0
   20.7030   12.2380   25.9210 C   0  0  0  0  0  0  0  0  0  0  0  0
   20.7130   10.9060   26.2890 C   0  0  0  0  0  0  0  0  0  0  0  0
   19.9010   10.4260   27.2470 F   0  0  0  0  0  0  0  0  0  0  0  0
   21.6000   10.0610   25.6610 C   0  0  0  0  0  0  0  0  0  0  0  0
   22.4530   10.4690   24.7070 N   0  0  0  0  0  0  0  0  0  0  0  0
  8  9  1  0
  9 10  1  0
 10 11  1  0
 10 12  2  0
 12 13  1  0
 13 14  1  0
 13  1  1  0
  1  2  2  0
  2  3  1  0
  3 21  1  0
 21 22  1  0
 22 23  2  0
 22 25  1  0
 25 26  2  0
 26 27  1  0
 27 28  2  0
 28 29  1  0
 28 30  1  0
 30 31  2  0
  3  4  2  0
  4  5  1  0
  5  6  2  0
  6  7  1  0
 13 15  1  0
 15 16  1  0
 16 17  2  0
 16 18  2  0
 16  9  1  0
  6  1  1  0
 31 25  1  0
 11 19  1  0
 11 20  1  0
 21 24  1  0
M  END
> <meeko>
{"is_sidechain": false}

> <source_group>
BACE1-476

> <source_system>
BACE1_verubecestat

> <source_run>
alternate_476_seed3301_ex32

> <source_seed>
3301

> <vina_pose_rank>
15

> <vina_affinity_kcal_mol>
-7.1639999999999997

> <vina_rmsd_to_crystal_angstrom>
8.1856000000000009

> <minimizedAffinity>
-7.64692

> <CNNscore>
0.0191723146

> <CNNaffinity>
4.2776741982

> <CNN_VS>
0.0820129141

> <CNNaffinity_variance>
0.8678237796

$$$$
BACE1_verubecestat__alternate_476_seed3301_ex32__pose16


 31 33  0  0  0  0  0  0  0  0999 V2000
   18.7160   12.0290   26.2210 C   0  0  0  0  0  0  0  0  0  0  0  0
   19.6690   12.4120   25.2790 C   0  0  0  0  0  0  0  0  0  0  0  0
   20.9670   12.7130   25.6250 C   0  0  0  0  0  0  0  0  0  0  0  0
   21.3700   12.6640   26.9540 C   0  0  0  0  0  0  0  0  0  0  0  0
   20.4370   12.2810   27.9020 C   0  0  0  0  0  0  0  0  0  0  0  0
   19.1470   11.9520   27.5360 C   0  0  0  0  0  0  0  0  0  0  0  0
   18.2600   11.5510   28.4820 F   0  0  0  0  0  0  0  0  0  0  0  0
   15.5050   15.0210   27.9210 C   0  0  0  0  0  0  0  0  0  0  0  0
   16.0040   13.8710   27.1410 N   0  0  0  0  0  0  0  0  0  0  0  0
   15.8830   12.5330   27.5780 C   0  0  0  0  0  0  0  0  0  0  0  0
   15.1300   12.3850   28.7110 N   0  0  0  0  0  0  0  0  0  0  0  0
   16.4100   11.5220   26.9600 N   0  0  0  0  0  0  0  0  0  0  0  0
   17.2900   11.7000   25.8060 C   0  0  0  0  0  0  0  0  0  0  0  0
   17.2730   10.3190   25.1450 C   0  0  0  0  0  0  0  0  0  0  0  0
   16.6690   12.6680   24.8240 C   0  0  0  0  0  0  0  0  0  0  0  0
   16.5120   14.2820   25.5480 S   0  0  0  0  0  0  0  0  0  0  0  0
   15.3880   14.9230   24.8900 O   0  0  0  0  0  0  0  0  0  0  0  0
   17.7870   14.8980   25.7440 O   0  0  0  0  0  0  0  0  0  0  0  0
   14.9870   11.4890   29.0940 H   0  0  0  0  0  0  0  0  0  0  0  0
   14.7300   13.1740   29.1440 H   0  0  0  0  0  0  0  0  0  0  0  0
   21.8240   13.0870   24.5820 N   0  0  0  0  0  0  0  0  0  0  0  0
   22.9090   12.3950   24.0740 C   0  0  0  0  0  0  0  0  0  0  0  0
   23.3810   11.3730   24.5560 O   0  0  0  0  0  0  0  0  0  0  0  0
   21.6300   13.9540   24.1570 H   0  0  0  0  0  0  0  0  0  0  0  0
   23.4900   12.9530   22.8290 C   0  0  0  0  0  0  0  0  0  0  0  0
   23.2770   12.3140   21.6200 C   0  0  0  0  0  0  0  0  0  0  0  0
   23.8440   12.8770   20.4910 C   0  0  0  0  0  0  0  0  0  0  0  0
   24.5860   14.0380   20.5990 C   0  0  0  0  0  0  0  0  0  0  0  0
   25.1630   14.6160   19.5320 F   0  0  0  0  0  0  0  0  0  0  0  0
   24.7460   14.5970   21.8460 C   0  0  0  0  0  0  0  0  0  0  0  0
   24.2130   14.0700   22.9610 N   0  0  0  0  0  0  0  0  0  0  0  0
  8  9  1  0
  9 10  1  0
 10 11  1  0
 10 12  2  0
 12 13  1  0
 13 14  1  0
 13  1  1  0
  1  2  2  0
  2  3  1  0
  3 21  1  0
 21 22  1  0
 22 23  2  0
 22 25  1  0
 25 26  2  0
 26 27  1  0
 27 28  2  0
 28 29  1  0
 28 30  1  0
 30 31  2  0
  3  4  2  0
  4  5  1  0
  5  6  2  0
  6  7  1  0
 13 15  1  0
 15 16  1  0
 16 17  2  0
 16 18  2  0
 16  9  1  0
  6  1  1  0
 31 25  1  0
 11 19  1  0
 11 20  1  0
 21 24  1  0
M  END
> <meeko>
{"is_sidechain": false}

> <source_group>
BACE1-476

> <source_system>
BACE1_verubecestat

> <source_run>
alternate_476_seed3301_ex32

> <source_seed>
3301

> <vina_pose_rank>
16

> <vina_affinity_kcal_mol>
-7.0339999999999998

> <vina_rmsd_to_crystal_angstrom>
7.4817999999999998

> <minimizedAffinity>
-7.70473

> <CNNscore>
0.1241039634

> <CNNaffinity>
5.3418254852

> <CNN_VS>
0.6629416943

> <CNNaffinity_variance>
0.0874084607

$$$$
BACE1_verubecestat__alternate_476_seed3301_ex32__pose17


 31 33  0  0  0  0  0  0  0  0999 V2000
   26.9700   14.4980   20.5960 C   0  0  0  0  0  0  0  0  0  0  0  0
   28.1720   15.1020   20.9610 C   0  0  0  0  0  0  0  0  0  0  0  0
   28.4890   16.3920   20.5990 C   0  0  0  0  0  0  0  0  0  0  0  0
   27.6120   17.1400   19.8240 C   0  0  0  0  0  0  0  0  0  0  0  0
   26.4120   16.5580   19.4540 C   0  0  0  0  0  0  0  0  0  0  0  0
   26.0940   15.2740   19.8520 C   0  0  0  0  0  0  0  0  0  0  0  0
   24.8980   14.7370   19.5010 F   0  0  0  0  0  0  0  0  0  0  0  0
   27.2460   13.7730   25.2380 C   0  0  0  0  0  0  0  0  0  0  0  0
   26.9900   13.4240   23.8270 N   0  0  0  0  0  0  0  0  0  0  0  0
   27.9000   12.6850   23.0380 C   0  0  0  0  0  0  0  0  0  0  0  0
   28.9680   12.1920   23.7390 N   0  0  0  0  0  0  0  0  0  0  0  0
   27.7410   12.4620   21.7700 N   0  0  0  0  0  0  0  0  0  0  0  0
   26.6480   13.0720   21.0140 C   0  0  0  0  0  0  0  0  0  0  0  0
   26.5670   12.1960   19.7610 C   0  0  0  0  0  0  0  0  0  0  0  0
   25.3430   12.9020   21.7590 C   0  0  0  0  0  0  0  0  0  0  0  0
   25.3860   13.7720   23.3060 S   0  0  0  0  0  0  0  0  0  0  0  0
   24.4820   13.0720   24.2000 O   0  0  0  0  0  0  0  0  0  0  0  0
   25.3890   15.1890   23.1140 O   0  0  0  0  0  0  0  0  0  0  0  0
   29.6580   11.6630   23.2760 H   0  0  0  0  0  0  0  0  0  0  0  0
   29.0460   12.3660   24.7050 H   0  0  0  0  0  0  0  0  0  0  0  0
   29.7300   16.8780   21.0290 N   0  0  0  0  0  0  0  0  0  0  0  0
   30.1400   17.1600   22.3200 C   0  0  0  0  0  0  0  0  0  0  0  0
   29.4160   17.1480   23.3070 O   0  0  0  0  0  0  0  0  0  0  0  0
   30.3960   17.0390   20.3220 H   0  0  0  0  0  0  0  0  0  0  0  0
   31.5840   17.4600   22.4750 C   0  0  0  0  0  0  0  0  0  0  0  0
   32.1270   17.6120   23.7390 C   0  0  0  0  0  0  0  0  0  0  0  0
   33.4790   17.8930   23.8250 C   0  0  0  0  0  0  0  0  0  0  0  0
   34.2320   18.0080   22.6730 C   0  0  0  0  0  0  0  0  0  0  0  0
   35.5460   18.2880   22.7070 F   0  0  0  0  0  0  0  0  0  0  0  0
   33.6010   17.8450   21.4610 C   0  0  0  0  0  0  0  0  0  0  0  0
   32.2900   17.5770   21.3460 N   0  0  0  0  0  0  0  0  0  0  0  0
  8  9  1  0
  9 10  1  0
 10 11  1  0
 10 12  2  0
 12 13  1  0
 13 14  1  0
 13  1  1  0
  1  2  2  0
  2  3  1  0
  3 21  1  0
 21 22  1  0
 22 23  2  0
 22 25  1  0
 25 26  2  0
 26 27  1  0
 27 28  2  0
 28 29  1  0
 28 30  1  0
 30 31  2  0
  3  4  2  0
  4  5  1  0
  5  6  2  0
  6  7  1  0
 13 15  1  0
 15 16  1  0
 16 17  2  0
 16 18  2  0
 16  9  1  0
  6  1  1  0
 31 25  1  0
 11 19  1  0
 11 20  1  0
 21 24  1  0
M  END
> <meeko>
{"is_sidechain": false}

> <source_group>
BACE1-476

> <source_system>
BACE1_verubecestat

> <source_run>
alternate_476_seed3301_ex32

> <source_seed>
3301

> <vina_pose_rank>
17

> <vina_affinity_kcal_mol>
-7.0289999999999999

> <vina_rmsd_to_crystal_angstrom>
6.9526000000000003

> <minimizedAffinity>
-6.91975

> <CNNscore>
0.0213961303

> <CNNaffinity>
3.7640686035

> <CNN_VS>
0.0805364996

> <CNNaffinity_variance>
1.1359769106

$$$$
BACE1_verubecestat__alternate_476_seed3301_ex32__pose18


 31 33  0  0  0  0  0  0  0  0999 V2000
   25.0220   13.4050   23.3460 C   0  0  0  0  0  0  0  0  0  0  0  0
   25.9330   14.1860   22.6360 C   0  0  0  0  0  0  0  0  0  0  0  0
   27.1430   14.5710   23.1670 C   0  0  0  0  0  0  0  0  0  0  0  0
   27.4920   14.2050   24.4600 C   0  0  0  0  0  0  0  0  0  0  0  0
   26.6020   13.4270   25.1790 C   0  0  0  0  0  0  0  0  0  0  0  0
   25.4050   13.0210   24.6220 C   0  0  0  0  0  0  0  0  0  0  0  0
   24.5620   12.2340   25.3380 F   0  0  0  0  0  0  0  0  0  0  0  0
   25.3760   11.8820   18.9070 C   0  0  0  0  0  0  0  0  0  0  0  0
   24.6950   12.2040   20.1770 N   0  0  0  0  0  0  0  0  0  0  0  0
   23.9230   13.3730   20.3610 C   0  0  0  0  0  0  0  0  0  0  0  0
   23.7350   14.1010   19.2170 N   0  0  0  0  0  0  0  0  0  0  0  0
   23.4090   13.7260   21.4990 N   0  0  0  0  0  0  0  0  0  0  0  0
   23.6940   12.9920   22.7310 C   0  0  0  0  0  0  0  0  0  0  0  0
   22.5600   13.4320   23.6620 C   0  0  0  0  0  0  0  0  0  0  0  0
   23.5280   11.5070   22.5020 C   0  0  0  0  0  0  0  0  0  0  0  0
   24.7150   10.9180   21.3210 S   0  0  0  0  0  0  0  0  0  0  0  0
   24.1190    9.7610   20.6770 O   0  0  0  0  0  0  0  0  0  0  0  0
   26.0430   10.9490   21.8480 O   0  0  0  0  0  0  0  0  0  0  0  0
   23.2100   14.9330   19.2440 H   0  0  0  0  0  0  0  0  0  0  0  0
   24.1260   13.7930   18.3670 H   0  0  0  0  0  0  0  0  0  0  0  0
   27.9650   15.3570   22.3490 N   0  0  0  0  0  0  0  0  0  0  0  0
   29.3420   15.3150   22.2240 C   0  0  0  0  0  0  0  0  0  0  0  0
   30.0930   14.6500   22.9260 O   0  0  0  0  0  0  0  0  0  0  0  0
   27.5030   16.0250   21.7910 H   0  0  0  0  0  0  0  0  0  0  0  0
   29.9030   16.1290   21.1190 C   0  0  0  0  0  0  0  0  0  0  0  0
   29.0560   16.8130   20.2650 C   0  0  0  0  0  0  0  0  0  0  0  0
   29.6330   17.5550   19.2500 C   0  0  0  0  0  0  0  0  0  0  0  0
   31.0080   17.5950   19.1240 C   0  0  0  0  0  0  0  0  0  0  0  0
   31.6130   18.2950   18.1480 F   0  0  0  0  0  0  0  0  0  0  0  0
   31.7680   16.8770   20.0190 C   0  0  0  0  0  0  0  0  0  0  0  0
   31.2360   16.1430   21.0100 N   0  0  0  0  0  0  0  0  0  0  0  0
  8  9  1  0
  9 10  1  0
 10 11  1  0
 10 12  2  0
 12 13  1  0
 13 14  1  0
 13  1  1  0
  1  2  2  0
  2  3  1  0
  3 21  1  0
 21 22  1  0
 22 23  2  0
 22 25  1  0
 25 26  2  0
 26 27  1  0
 27 28  2  0
 28 29  1  0
 28 30  1  0
 30 31  2  0
  3  4  2  0
  4  5  1  0
  5  6  2  0
  6  7  1  0
 13 15  1  0
 15 16  1  0
 16 17  2  0
 16 18  2  0
 16  9  1  0
  6  1  1  0
 31 25  1  0
 11 19  1  0
 11 20  1  0
 21 24  1  0
M  END
> <meeko>
{"is_sidechain": false}

> <source_group>
BACE1-476

> <source_system>
BACE1_verubecestat

> <source_run>
alternate_476_seed3301_ex32

> <source_seed>
3301

> <vina_pose_rank>
18

> <vina_affinity_kcal_mol>
-7.0259999999999998

> <vina_rmsd_to_crystal_angstrom>
6.4119999999999999

> <minimizedAffinity>
-7.24158

> <CNNscore>
0.0774240568

> <CNNaffinity>
4.9108219147

> <CNN_VS>
0.3802157640

> <CNNaffinity_variance>
0.6429696679

$$$$
BACE1_verubecestat__alternate_476_seed3301_ex32__pose19


 31 33  0  0  0  0  0  0  0  0999 V2000
   27.8690   14.3520   22.9320 C   0  0  0  0  0  0  0  0  0  0  0  0
   28.1000   15.0020   21.7200 C   0  0  0  0  0  0  0  0  0  0  0  0
   27.0810   15.5320   20.9630 C   0  0  0  0  0  0  0  0  0  0  0  0
   25.7610   15.4150   21.3790 C   0  0  0  0  0  0  0  0  0  0  0  0
   25.5130   14.7760   22.5810 C   0  0  0  0  0  0  0  0  0  0  0  0
   26.5480   14.2770   23.3460 C   0  0  0  0  0  0  0  0  0  0  0  0
   26.2800   13.6800   24.5360 F   0  0  0  0  0  0  0  0  0  0  0  0
   30.9840   17.5810   24.3540 C   0  0  0  0  0  0  0  0  0  0  0  0
   30.3890   16.2350   24.2350 N   0  0  0  0  0  0  0  0  0  0  0  0
   30.8920   15.2450   23.3610 C   0  0  0  0  0  0  0  0  0  0  0  0
   32.0670   15.5910   22.7480 N   0  0  0  0  0  0  0  0  0  0  0  0
   30.3190   14.0990   23.1630 N   0  0  0  0  0  0  0  0  0  0  0  0
   29.0180   13.7790   23.7480 C   0  0  0  0  0  0  0  0  0  0  0  0
   28.9700   12.2510   23.6640 C   0  0  0  0  0  0  0  0  0  0  0  0
   29.0050   14.1430   25.2160 C   0  0  0  0  0  0  0  0  0  0  0  0
   29.1970   15.8940   25.4290 S   0  0  0  0  0  0  0  0  0  0  0  0
   29.8210   16.0870   26.7260 O   0  0  0  0  0  0  0  0  0  0  0  0
   28.0460   16.6110   24.9780 O   0  0  0  0  0  0  0  0  0  0  0  0
   32.4960   14.9660   22.1200 H   0  0  0  0  0  0  0  0  0  0  0  0
   32.4830   16.4630   22.9360 H   0  0  0  0  0  0  0  0  0  0  0  0
   27.4490   16.1570   19.7640 N   0  0  0  0  0  0  0  0  0  0  0  0
   28.1230   17.3530   19.5940 C   0  0  0  0  0  0  0  0  0  0  0  0
   28.4000   18.1400   20.4900 O   0  0  0  0  0  0  0  0  0  0  0  0
   27.1960   15.6850   18.9380 H   0  0  0  0  0  0  0  0  0  0  0  0
   28.5530   17.6450   18.2040 C   0  0  0  0  0  0  0  0  0  0  0  0
   29.8920   17.8580   17.9260 C   0  0  0  0  0  0  0  0  0  0  0  0
   30.2370   18.1280   16.6130 C   0  0  0  0  0  0  0  0  0  0  0  0
   29.2580   18.1730   15.6400 C   0  0  0  0  0  0  0  0  0  0  0  0
   29.5430   18.4410   14.3540 F   0  0  0  0  0  0  0  0  0  0  0  0
   27.9520   17.9530   16.0160 C   0  0  0  0  0  0  0  0  0  0  0  0
   27.5860   17.6950   17.2830 N   0  0  0  0  0  0  0  0  0  0  0  0
  8  9  1  0
  9 10  1  0
 10 11  1  0
 10 12  2  0
 12 13  1  0
 13 14  1  0
 13  1  1  0
  1  2  2  0
  2  3  1  0
  3 21  1  0
 21 22  1  0
 22 23  2  0
 22 25  1  0
 25 26  2  0
 26 27  1  0
 27 28  2  0
 28 29  1  0
 28 30  1  0
 30 31  2  0
  3  4  2  0
  4  5  1  0
  5  6  2  0
  6  7  1  0
 13 15  1  0
 15 16  1  0
 16 17  2  0
 16 18  2  0
 16  9  1  0
  6  1  1  0
 31 25  1  0
 11 19  1  0
 11 20  1  0
 21 24  1  0
M  END
> <meeko>
{"is_sidechain": false}

> <source_group>
BACE1-476

> <source_system>
BACE1_verubecestat

> <source_run>
alternate_476_seed3301_ex32

> <source_seed>
3301

> <vina_pose_rank>
19

> <vina_affinity_kcal_mol>
-6.9779999999999998

> <vina_rmsd_to_crystal_angstrom>
8.8948

> <minimizedAffinity>
-6.88439

> <CNNscore>
0.0389580280

> <CNNaffinity>
4.0513901711

> <CNN_VS>
0.1578341722

> <CNNaffinity_variance>
0.8724285960

$$$$
BACE1_verubecestat__alternate_476_seed3301_ex32__pose20


 31 33  0  0  0  0  0  0  0  0999 V2000
   26.4300   14.4050   22.6990 C   0  0  0  0  0  0  0  0  0  0  0  0
   26.6900   15.0900   21.5130 C   0  0  0  0  0  0  0  0  0  0  0  0
   27.9200   15.6440   21.2360 C   0  0  0  0  0  0  0  0  0  0  0  0
   28.9550   15.5540   22.1580 C   0  0  0  0  0  0  0  0  0  0  0  0
   28.7160   14.8750   23.3400 C   0  0  0  0  0  0  0  0  0  0  0  0
   27.4870   14.2970   23.5900 C   0  0  0  0  0  0  0  0  0  0  0  0
   27.2880   13.6110   24.7440 F   0  0  0  0  0  0  0  0  0  0  0  0
   24.8270   11.6680   19.2220 C   0  0  0  0  0  0  0  0  0  0  0  0
   24.8080   12.3300   20.5410 N   0  0  0  0  0  0  0  0  0  0  0  0
   24.0400   13.4830   20.8130 C   0  0  0  0  0  0  0  0  0  0  0  0
   23.1990   13.8440   19.7940 N   0  0  0  0  0  0  0  0  0  0  0  0
   24.0940   14.1390   21.9310 N   0  0  0  0  0  0  0  0  0  0  0  0
   25.0620   13.8020   22.9740 C   0  0  0  0  0  0  0  0  0  0  0  0
   24.4700   14.4670   24.2200 C   0  0  0  0  0  0  0  0  0  0  0  0
   25.0570   12.3100   23.2240 C   0  0  0  0  0  0  0  0  0  0  0  0
   25.5980   11.4310   21.7790 S   0  0  0  0  0  0  0  0  0  0  0  0
   24.9690   10.1240   21.8300 O   0  0  0  0  0  0  0  0  0  0  0  0
   26.9890   11.6440   21.5220 O   0  0  0  0  0  0  0  0  0  0  0  0
   22.6220   14.6360   19.8900 H   0  0  0  0  0  0  0  0  0  0  0  0
   23.1720   13.3110   18.9670 H   0  0  0  0  0  0  0  0  0  0  0  0
   28.0470   16.3080   20.0090 N   0  0  0  0  0  0  0  0  0  0  0  0
   28.9500   17.2960   19.6590 C   0  0  0  0  0  0  0  0  0  0  0  0
   29.7190   17.8530   20.4320 O   0  0  0  0  0  0  0  0  0  0  0  0
   27.4140   16.0350   19.3060 H   0  0  0  0  0  0  0  0  0  0  0  0
   28.9730   17.6520   18.2200 C   0  0  0  0  0  0  0  0  0  0  0  0
   27.7910   17.7060   17.5020 C   0  0  0  0  0  0  0  0  0  0  0  0
   27.8720   18.0410   16.1610 C   0  0  0  0  0  0  0  0  0  0  0  0
   29.1020   18.3080   15.5920 C   0  0  0  0  0  0  0  0  0  0  0  0
   29.2310   18.6280   14.2930 F   0  0  0  0  0  0  0  0  0  0  0  0
   30.2230   18.2230   16.3870 C   0  0  0  0  0  0  0  0  0  0  0  0
   30.1760   17.8950   17.6890 N   0  0  0  0  0  0  0  0  0  0  0  0
  8  9  1  0
  9 10  1  0
 10 11  1  0
 10 12  2  0
 12 13  1  0
 13 14  1  0
 13  1  1  0
  1  2  2  0
  2  3  1  0
  3 21  1  0
 21 22  1  0
 22 23  2  0
 22 25  1  0
 25 26  2  0
 26 27  1  0
 27 28  2  0
 28 29  1  0
 28 30  1  0
 30 31  2  0
  3  4  2  0
  4  5  1  0
  5  6  2  0
  6  7  1  0
 13 15  1  0
 15 16  1  0
 16 17  2  0
 16 18  2  0
 16  9  1  0
  6  1  1  0
 31 25  1  0
 11 19  1  0
 11 20  1  0
 21 24  1  0
M  END
> <meeko>
{"is_sidechain": false}

> <source_group>
BACE1-476

> <source_system>
BACE1_verubecestat

> <source_run>
alternate_476_seed3301_ex32

> <source_seed>
3301

> <vina_pose_rank>
20

> <vina_affinity_kcal_mol>
-6.8600000000000003

> <vina_rmsd_to_crystal_angstrom>
7.6614000000000004

> <minimizedAffinity>
-7.06703

> <CNNscore>
0.0740173981

> <CNNaffinity>
4.6253409386

> <CNN_VS>
0.3423556983

> <CNNaffinity_variance>
0.8407289982

$$$$
