
     RDKit          3D

 57 61  0  0  0  0  0  0  0  0999 V2000
   -0.8992   -3.0449    4.8212 C   0  0  0  0  0  0  0  0  0  0  0  0
    0.0998   -2.6064    3.7821 C   0  0  0  0  0  0  0  0  0  0  0  0
    1.4680   -2.7456    4.0743 C   0  0  0  0  0  0  0  0  0  0  0  0
    2.4346   -2.3482    3.1546 C   0  0  0  0  0  0  0  0  0  0  0  0
    2.0445   -1.7868    1.9394 C   0  0  0  0  0  0  0  0  0  0  0  0
    3.1038   -1.3891    0.9730 C   0  0  0  0  0  0  0  0  0  0  0  0
    4.0957   -2.1034    0.8816 O   0  0  0  0  0  0  0  0  0  0  0  0
    2.8675   -0.2028    0.3029 N   0  0  0  0  0  0  0  0  0  0  0  0
    3.6871    0.3949   -0.6785 C   0  0  0  0  0  0  0  0  0  0  0  0
    4.7986   -0.2260   -1.2471 C   0  0  0  0  0  0  0  0  0  0  0  0
    5.5562    0.4259   -2.2238 C   0  0  0  0  0  0  0  0  0  0  0  0
    5.2107    1.7096   -2.6401 C   0  0  0  0  0  0  0  0  0  0  0  0
    4.1021    2.3567   -2.0804 C   0  0  0  0  0  0  0  0  0  0  0  0
    3.7102    3.7436   -2.5220 C   0  0  0  0  0  0  0  0  0  0  0  0
    4.7045    4.3984   -3.1873 F   0  0  0  0  0  0  0  0  0  0  0  0
    2.6417    3.7456   -3.3687 F   0  0  0  0  0  0  0  0  0  0  0  0
    3.3689    4.5585   -1.4858 F   0  0  0  0  0  0  0  0  0  0  0  0
    3.3433    1.6831   -1.1068 C   0  0  0  0  0  0  0  0  0  0  0  0
    0.6834   -1.6566    1.6318 C   0  0  0  0  0  0  0  0  0  0  0  0
   -0.3077   -2.0853    2.5300 C   0  0  0  0  0  0  0  0  0  0  0  0
   -1.6828   -1.9630    2.2405 N   0  0  0  0  0  0  0  0  0  0  0  0
   -2.3657   -1.2183    1.2696 C   0  0  0  0  0  0  0  0  0  0  0  0
   -1.7726   -0.1705    0.6412 N   0  0  0  0  0  0  0  0  0  0  0  0
   -2.4547    0.5513   -0.2786 C   0  0  0  0  0  0  0  0  0  0  0  0
   -1.7344    1.6696   -0.8970 C   0  0  0  0  0  0  0  0  0  0  0  0
   -2.1026    2.2244   -2.1315 C   0  0  0  0  0  0  0  0  0  0  0  0
   -1.3768    3.2831   -2.6784 C   0  0  0  0  0  0  0  0  0  0  0  0
   -0.2909    3.7693   -1.9718 C   0  0  0  0  0  0  0  0  0  0  0  0
    0.1054    3.2742   -0.7811 N   0  0  0  0  0  0  0  0  0  0  0  0
   -0.6277    2.2490   -0.2767 C   0  0  0  0  0  0  0  0  0  0  0  0
   -3.7250    0.3434   -0.6723 N   0  0  0  0  0  0  0  0  0  0  0  0
   -4.2944   -0.6823   -0.0204 C   0  0  0  0  0  0  0  0  0  0  0  0
   -3.7004   -1.4861    0.9352 C   0  0  0  0  0  0  0  0  0  0  0  0
   -4.7105   -2.4033    1.2953 C   0  0  0  0  0  0  0  0  0  0  0  0
   -5.8572   -2.2007    0.6389 N   0  0  0  0  0  0  0  0  0  0  0  0
   -5.5753   -1.1453   -0.1598 N   0  0  0  0  0  0  0  0  0  0  0  0
   -6.5944   -0.6252   -1.0352 C   0  0  0  0  0  0  0  0  0  0  0  0
   -1.6278   -2.2504    5.0127 H   0  0  0  0  0  0  0  0  0  0  0  0
   -1.4197   -3.9480    4.4864 H   0  0  0  0  0  0  0  0  0  0  0  0
   -0.4130   -3.2717    5.7761 H   0  0  0  0  0  0  0  0  0  0  0  0
    1.7903   -3.1676    5.0240 H   0  0  0  0  0  0  0  0  0  0  0  0
    3.4904   -2.4732    3.3870 H   0  0  0  0  0  0  0  0  0  0  0  0
    2.0667    0.3415    0.6012 H   0  0  0  0  0  0  0  0  0  0  0  0
    5.0980   -1.2300   -0.9599 H   0  0  0  0  0  0  0  0  0  0  0  0
    6.4166   -0.0765   -2.6598 H   0  0  0  0  0  0  0  0  0  0  0  0
    5.8126    2.2036   -3.4009 H   0  0  0  0  0  0  0  0  0  0  0  0
    2.4829    2.1907   -0.6758 H   0  0  0  0  0  0  0  0  0  0  0  0
    0.3998   -1.2795    0.6536 H   0  0  0  0  0  0  0  0  0  0  0  0
   -2.2605   -2.6430    2.7153 H   0  0  0  0  0  0  0  0  0  0  0  0
   -2.9555    1.8271   -2.6792 H   0  0  0  0  0  0  0  0  0  0  0  0
   -1.6519    3.7144   -3.6348 H   0  0  0  0  0  0  0  0  0  0  0  0
    0.3075    4.5900   -2.3580 H   0  0  0  0  0  0  0  0  0  0  0  0
   -0.2847    1.8970    0.6943 H   0  0  0  0  0  0  0  0  0  0  0  0
   -4.6624   -3.2133    2.0113 H   0  0  0  0  0  0  0  0  0  0  0  0
   -7.4917   -0.4260   -0.4422 H   0  0  0  0  0  0  0  0  0  0  0  0
   -6.8018   -1.3766   -1.8014 H   0  0  0  0  0  0  0  0  0  0  0  0
   -6.2493    0.3006   -1.5012 H   0  0  0  0  0  0  0  0  0  0  0  0
  1  2  1  0
  2  3  1  0
  3  4  2  0
  4  5  1  0
  5  6  1  0
  6  7  2  0
  6  8  1  0
  8  9  1  0
  9 10  1  0
 10 11  2  0
 11 12  1  0
 12 13  2  0
 13 14  1  0
 14 15  1  0
 14 16  1  0
 14 17  1  0
 13 18  1  0
  5 19  2  0
 19 20  1  0
 20 21  1  0
 21 22  1  0
 22 23  1  0
 23 24  2  0
 24 25  1  0
 25 26  1  0
 26 27  2  0
 27 28  1  0
 28 29  2  0
 29 30  1  0
 24 31  1  0
 31 32  2  0
 32 33  1  0
 33 34  1  0
 34 35  2  0
 35 36  1  0
 36 37  1  0
 20  2  2  0
 33 22  2  0
 18  9  2  0
 30 25  2  0
 36 32  1  0
  1 38  1  0
  1 39  1  0
  1 40  1  0
  3 41  1  0
  4 42  1  0
  8 43  1  0
 10 44  1  0
 11 45  1  0
 12 46  1  0
 18 47  1  0
 19 48  1  0
 21 49  1  0
 26 50  1  0
 27 51  1  0
 28 52  1  0
 30 53  1  0
 34 54  1  0
 37 55  1  0
 37 56  1  0
 37 57  1  0
M  END
$$$$
