AZD7325
     RDKit          3D

 45 47  0  0  0  0  0  0  0  0999 V2000
    5.5180   -1.4122   -1.2532 C   0  0  0  0  0  0  0  0  0  0  0  0
    5.4029   -0.0683   -1.9576 C   0  0  0  0  0  0  0  0  0  0  0  0
    4.9388    1.0560   -1.0345 C   0  0  0  0  0  0  0  0  0  0  0  0
    3.5651    0.8899   -0.6143 N   0  0  0  0  0  0  0  0  0  0  0  0
    3.2044    0.3952    0.6251 C   0  0  0  0  0  0  0  0  0  0  0  0
    4.0181    0.0850    1.4913 O   0  0  0  0  0  0  0  0  0  0  0  0
    1.7268    0.2718    0.8550 C   0  0  0  0  0  0  0  0  0  0  0  0
    0.9591    0.7983   -0.1247 N   0  0  0  0  0  0  0  0  0  0  0  0
   -0.4011    0.7687    0.0023 N   0  0  0  0  0  0  0  0  0  0  0  0
   -1.0032    0.2012    1.0676 C   0  0  0  0  0  0  0  0  0  0  0  0
   -0.2262   -0.3691    2.1045 C   0  0  0  0  0  0  0  0  0  0  0  0
    1.1896   -0.2941    2.0174 C   0  0  0  0  0  0  0  0  0  0  0  0
    2.0064   -0.9321    2.9903 N   0  0  0  0  0  0  0  0  0  0  0  0
   -0.8936   -0.9986    3.1826 C   0  0  0  0  0  0  0  0  0  0  0  0
   -2.2824   -1.0434    3.2563 C   0  0  0  0  0  0  0  0  0  0  0  0
   -3.0361   -0.4618    2.2490 C   0  0  0  0  0  0  0  0  0  0  0  0
   -2.4080    0.1582    1.1540 C   0  0  0  0  0  0  0  0  0  0  0  0
   -3.2478    0.7560    0.0986 C   0  0  0  0  0  0  0  0  0  0  0  0
   -3.7705   -0.0128   -0.9634 C   0  0  0  0  0  0  0  0  0  0  0  0
   -4.5606    0.6010   -1.9456 C   0  0  0  0  0  0  0  0  0  0  0  0
   -4.8283    1.9716   -1.8894 C   0  0  0  0  0  0  0  0  0  0  0  0
   -4.3133    2.7374   -0.8495 C   0  0  0  0  0  0  0  0  0  0  0  0
   -3.5339    2.1292    0.1296 C   0  0  0  0  0  0  0  0  0  0  0  0
   -3.0609    2.8919    1.1282 F   0  0  0  0  0  0  0  0  0  0  0  0
   -3.4708   -1.3528   -0.9421 O   0  0  0  0  0  0  0  0  0  0  0  0
   -3.7469   -2.1020   -2.1181 C   0  0  0  0  0  0  0  0  0  0  0  0
    4.5419   -1.7686   -0.9104 H   0  0  0  0  0  0  0  0  0  0  0  0
    5.9239   -2.1625   -1.9392 H   0  0  0  0  0  0  0  0  0  0  0  0
    6.1862   -1.3470   -0.3887 H   0  0  0  0  0  0  0  0  0  0  0  0
    6.3854    0.1964   -2.3656 H   0  0  0  0  0  0  0  0  0  0  0  0
    4.7160   -0.1648   -2.8067 H   0  0  0  0  0  0  0  0  0  0  0  0
    4.9858    2.0094   -1.5714 H   0  0  0  0  0  0  0  0  0  0  0  0
    5.5927    1.1315   -0.1592 H   0  0  0  0  0  0  0  0  0  0  0  0
    2.8139    1.1187   -1.2601 H   0  0  0  0  0  0  0  0  0  0  0  0
    2.9984   -0.6791    2.8805 H   0  0  0  0  0  0  0  0  0  0  0  0
    1.6963   -0.7905    3.9455 H   0  0  0  0  0  0  0  0  0  0  0  0
   -0.3303   -1.4797    3.9787 H   0  0  0  0  0  0  0  0  0  0  0  0
   -2.7720   -1.5345    4.0933 H   0  0  0  0  0  0  0  0  0  0  0  0
   -4.1224   -0.4986    2.3043 H   0  0  0  0  0  0  0  0  0  0  0  0
   -4.9883    0.0360   -2.7678 H   0  0  0  0  0  0  0  0  0  0  0  0
   -5.4399    2.4385   -2.6576 H   0  0  0  0  0  0  0  0  0  0  0  0
   -4.5112    3.8029   -0.7908 H   0  0  0  0  0  0  0  0  0  0  0  0
   -4.8259   -2.2073   -2.2696 H   0  0  0  0  0  0  0  0  0  0  0  0
   -3.2643   -1.6600   -2.9963 H   0  0  0  0  0  0  0  0  0  0  0  0
   -3.3318   -3.1050   -1.9801 H   0  0  0  0  0  0  0  0  0  0  0  0
  1  2  1  0
  2  3  1  0
  3  4  1  0
  4  5  1  0
  5  6  2  0
  5  7  1  0
  7  8  2  0
  8  9  1  0
  9 10  2  0
 10 11  1  0
 11 12  2  0
 12 13  1  0
 11 14  1  0
 14 15  2  0
 15 16  1  0
 16 17  2  0
 17 18  1  0
 18 19  2  0
 19 20  1  0
 20 21  2  0
 21 22  1  0
 22 23  2  0
 23 24  1  0
 19 25  1  0
 25 26  1  0
 12  7  1  0
 17 10  1  0
 23 18  1  0
  1 27  1  0
  1 28  1  0
  1 29  1  0
  2 30  1  0
  2 31  1  0
  3 32  1  0
  3 33  1  0
  4 34  1  0
 13 35  1  0
 13 36  1  0
 14 37  1  0
 15 38  1  0
 16 39  1  0
 20 40  1  0
 21 41  1  0
 22 42  1  0
 26 43  1  0
 26 44  1  0
 26 45  1  0
M  END
>  <SMILES>  (1) 
CCCNC(=O)C1=NN=C2C(=C1N)C=CC=C2C3=C(C=CC=C3F)OC

$$$$
