BACE1_verubecestat_401__alternate_401_seed5519_ex32__pose01


 31 33  0  0  0  0  0  0  0  0999 V2000
   18.7590   11.2960   25.6990 C   0  0  0  0  0  0  0  0  0  0  0  0
   18.4630   10.4180   24.6580 C   0  0  0  0  0  0  0  0  0  0  0  0
   17.3290   10.5450   23.8880 C   0  0  0  0  0  0  0  0  0  0  0  0
   16.4160   11.5600   24.1430 C   0  0  0  0  0  0  0  0  0  0  0  0
   16.6950   12.4440   25.1710 C   0  0  0  0  0  0  0  0  0  0  0  0
   17.8530   12.3230   25.9150 C   0  0  0  0  0  0  0  0  0  0  0  0
   18.1180   13.2200   26.8990 F   0  0  0  0  0  0  0  0  0  0  0  0
   22.7200   11.2900   23.1570 C   0  0  0  0  0  0  0  0  0  0  0  0
   21.8990   11.2480   24.3830 N   0  0  0  0  0  0  0  0  0  0  0  0
   21.6220   10.0540   25.0850 C   0  0  0  0  0  0  0  0  0  0  0  0
   22.3050    8.9630   24.6150 N   0  0  0  0  0  0  0  0  0  0  0  0
   20.8170    9.9820   26.0990 N   0  0  0  0  0  0  0  0  0  0  0  0
   20.0220   11.1310   26.5310 C   0  0  0  0  0  0  0  0  0  0  0  0
   19.6260   10.7560   27.9610 C   0  0  0  0  0  0  0  0  0  0  0  0
   20.8960   12.3620   26.6210 C   0  0  0  0  0  0  0  0  0  0  0  0
   21.5260   12.8030   25.0210 S   0  0  0  0  0  0  0  0  0  0  0  0
   22.7850   13.4890   25.2470 O   0  0  0  0  0  0  0  0  0  0  0  0
   20.4900   13.2850   24.1610 O   0  0  0  0  0  0  0  0  0  0  0  0
   22.1790    8.0840   25.0400 H   0  0  0  0  0  0  0  0  0  0  0  0
   22.9220    9.0590   23.8540 H   0  0  0  0  0  0  0  0  0  0  0  0
   17.1490    9.5950   22.8750 N   0  0  0  0  0  0  0  0  0  0  0  0
   16.4270    8.4160   22.9250 C   0  0  0  0  0  0  0  0  0  0  0  0
   15.9210    7.9410   23.9340 O   0  0  0  0  0  0  0  0  0  0  0  0
   17.5920    9.7910   22.0180 H   0  0  0  0  0  0  0  0  0  0  0  0
   16.2490    7.7270   21.6230 C   0  0  0  0  0  0  0  0  0  0  0  0
   14.9810    7.3670   21.1990 C   0  0  0  0  0  0  0  0  0  0  0  0
   14.8740    6.7250   19.9780 C   0  0  0  0  0  0  0  0  0  0  0  0
   16.0080    6.4700   19.2330 C   0  0  0  0  0  0  0  0  0  0  0  0
   15.9540    5.8410   18.0470 F   0  0  0  0  0  0  0  0  0  0  0  0
   17.2260    6.8600   19.7420 C   0  0  0  0  0  0  0  0  0  0  0  0
   17.3630    7.4800   20.9260 N   0  0  0  0  0  0  0  0  0  0  0  0
  8  9  1  0
  9 10  1  0
 10 11  1  0
 10 12  2  0
 12 13  1  0
 13 14  1  0
 13  1  1  0
  1  2  2  0
  2  3  1  0
  3 21  1  0
 21 22  1  0
 22 23  2  0
 22 25  1  0
 25 26  2  0
 26 27  1  0
 27 28  2  0
 28 29  1  0
 28 30  1  0
 30 31  2  0
  3  4  2  0
  4  5  1  0
  5  6  2  0
  6  7  1  0
 13 15  1  0
 15 16  1  0
 16 17  2  0
 16 18  2  0
 16  9  1  0
  6  1  1  0
 31 25  1  0
 11 19  1  0
 11 20  1  0
 21 24  1  0
M  END
> <meeko>
{"is_sidechain": false}

> <source_group>
BACE1-401 observed AD isoform

> <source_system>
BACE1_verubecestat_401

> <source_run>
alternate_401_seed5519_ex32

> <source_seed>
5519

> <vina_pose_rank>
1

> <vina_affinity_kcal_mol>
-8.6739999999999995

> <vina_rmsd_to_crystal_angstrom>
9.4808000000000003

> <minimizedAffinity>
-8.67497

> <CNNscore>
0.6188454032

> <CNNaffinity>
5.8610043526

> <CNN_VS>
3.6270556450

> <CNNaffinity_variance>
0.0852612481

$$$$
BACE1_verubecestat_401__alternate_401_seed5519_ex32__pose02


 31 33  0  0  0  0  0  0  0  0999 V2000
   16.4950    5.8630   21.0340 C   0  0  0  0  0  0  0  0  0  0  0  0
   17.3300    5.4880   22.0850 C   0  0  0  0  0  0  0  0  0  0  0  0
   18.7020    5.5220   21.9840 C   0  0  0  0  0  0  0  0  0  0  0  0
   19.3100    5.9180   20.7990 C   0  0  0  0  0  0  0  0  0  0  0  0
   18.4970    6.2970   19.7460 C   0  0  0  0  0  0  0  0  0  0  0  0
   17.1220    6.2890   19.8730 C   0  0  0  0  0  0  0  0  0  0  0  0
   16.3470    6.6930   18.8340 F   0  0  0  0  0  0  0  0  0  0  0  0
   14.4650    2.3450   18.6560 C   0  0  0  0  0  0  0  0  0  0  0  0
   14.5220    3.5160   19.5530 N   0  0  0  0  0  0  0  0  0  0  0  0
   14.1590    4.8180   19.1440 C   0  0  0  0  0  0  0  0  0  0  0  0
   13.6070    4.8730   17.8920 N   0  0  0  0  0  0  0  0  0  0  0  0
   14.3050    5.8740   19.8830 N   0  0  0  0  0  0  0  0  0  0  0  0
   14.9820    5.8180   21.1780 C   0  0  0  0  0  0  0  0  0  0  0  0
   14.5120    7.1020   21.8670 C   0  0  0  0  0  0  0  0  0  0  0  0
   14.4500    4.6580   21.9910 C   0  0  0  0  0  0  0  0  0  0  0  0
   14.8230    3.1140   21.2000 S   0  0  0  0  0  0  0  0  0  0  0  0
   13.7900    2.1790   21.6100 O   0  0  0  0  0  0  0  0  0  0  0  0
   16.2230    2.8290   21.2320 O   0  0  0  0  0  0  0  0  0  0  0  0
   13.3210    5.7380   17.5180 H   0  0  0  0  0  0  0  0  0  0  0  0
   13.4950    4.0480   17.3660 H   0  0  0  0  0  0  0  0  0  0  0  0
   19.4250    5.1170   23.1130 N   0  0  0  0  0  0  0  0  0  0  0  0
   19.3190    5.5830   24.4110 C   0  0  0  0  0  0  0  0  0  0  0  0
   18.6440    6.5420   24.7630 O   0  0  0  0  0  0  0  0  0  0  0  0
   20.0940    4.4100   22.9640 H   0  0  0  0  0  0  0  0  0  0  0  0
   20.0730    4.8080   25.4260 C   0  0  0  0  0  0  0  0  0  0  0  0
   20.0080    5.1700   26.7610 C   0  0  0  0  0  0  0  0  0  0  0  0
   20.7330    4.4120   27.6640 C   0  0  0  0  0  0  0  0  0  0  0  0
   21.4800    3.3390   27.2190 C   0  0  0  0  0  0  0  0  0  0  0  0
   22.2060    2.5810   28.0580 F   0  0  0  0  0  0  0  0  0  0  0  0
   21.4850    3.0610   25.8710 C   0  0  0  0  0  0  0  0  0  0  0  0
   20.7970    3.7810   24.9700 N   0  0  0  0  0  0  0  0  0  0  0  0
  8  9  1  0
  9 10  1  0
 10 11  1  0
 10 12  2  0
 12 13  1  0
 13 14  1  0
 13  1  1  0
  1  2  2  0
  2  3  1  0
  3 21  1  0
 21 22  1  0
 22 23  2  0
 22 25  1  0
 25 26  2  0
 26 27  1  0
 27 28  2  0
 28 29  1  0
 28 30  1  0
 30 31  2  0
  3  4  2  0
  4  5  1  0
  5  6  2  0
  6  7  1  0
 13 15  1  0
 15 16  1  0
 16 17  2  0
 16 18  2  0
 16  9  1  0
  6  1  1  0
 31 25  1  0
 11 19  1  0
 11 20  1  0
 21 24  1  0
M  END
> <meeko>
{"is_sidechain": false}

> <source_group>
BACE1-401 observed AD isoform

> <source_system>
BACE1_verubecestat_401

> <source_run>
alternate_401_seed5519_ex32

> <source_seed>
5519

> <vina_pose_rank>
2

> <vina_affinity_kcal_mol>
-8.4469999999999992

> <vina_rmsd_to_crystal_angstrom>
10.284599999999999

> <minimizedAffinity>
-9.21639

> <CNNscore>
0.1105486751

> <CNNaffinity>
5.3196110725

> <CNN_VS>
0.5880759358

> <CNNaffinity_variance>
0.3404671848

$$$$
BACE1_verubecestat_401__alternate_401_seed5519_ex32__pose03


 31 33  0  0  0  0  0  0  0  0999 V2000
   19.2600   11.7200   25.8880 C   0  0  0  0  0  0  0  0  0  0  0  0
   19.4290   10.3760   26.2170 C   0  0  0  0  0  0  0  0  0  0  0  0
   20.3710    9.5810   25.6040 C   0  0  0  0  0  0  0  0  0  0  0  0
   21.1850   10.0980   24.6040 C   0  0  0  0  0  0  0  0  0  0  0  0
   21.0330   11.4320   24.2670 C   0  0  0  0  0  0  0  0  0  0  0  0
   20.1060   12.2260   24.9130 C   0  0  0  0  0  0  0  0  0  0  0  0
   19.9980   13.5390   24.5840 F   0  0  0  0  0  0  0  0  0  0  0  0
   20.2010   12.5530   30.4240 C   0  0  0  0  0  0  0  0  0  0  0  0
   19.4470   12.6510   29.1580 N   0  0  0  0  0  0  0  0  0  0  0  0
   18.2680   11.9150   28.9050 C   0  0  0  0  0  0  0  0  0  0  0  0
   17.8030   11.2210   29.9890 N   0  0  0  0  0  0  0  0  0  0  0  0
   17.6550   11.9060   27.7610 N   0  0  0  0  0  0  0  0  0  0  0  0
   18.2120   12.5740   26.5860 C   0  0  0  0  0  0  0  0  0  0  0  0
   16.9980   12.7160   25.6640 C   0  0  0  0  0  0  0  0  0  0  0  0
   18.6610   13.9720   26.9470 C   0  0  0  0  0  0  0  0  0  0  0  0
   19.9850   13.9210   28.1280 S   0  0  0  0  0  0  0  0  0  0  0  0
   19.9090   15.1540   28.8900 O   0  0  0  0  0  0  0  0  0  0  0  0
   21.1880   13.4060   27.5500 O   0  0  0  0  0  0  0  0  0  0  0  0
   16.9850   10.6780   29.9110 H   0  0  0  0  0  0  0  0  0  0  0  0
   18.2850   11.2660   30.8470 H   0  0  0  0  0  0  0  0  0  0  0  0
   20.4360    8.2470   26.0250 N   0  0  0  0  0  0  0  0  0  0  0  0
   19.6800    7.1730   25.5910 C   0  0  0  0  0  0  0  0  0  0  0  0
   18.7180    7.2480   24.8370 O   0  0  0  0  0  0  0  0  0  0  0  0
   21.1060    8.0470   26.7190 H   0  0  0  0  0  0  0  0  0  0  0  0
   20.1280    5.8450   26.0740 C   0  0  0  0  0  0  0  0  0  0  0  0
   20.0550    5.5390   27.4220 C   0  0  0  0  0  0  0  0  0  0  0  0
   20.4890    4.2870   27.8190 C   0  0  0  0  0  0  0  0  0  0  0  0
   20.9690    3.3960   26.8780 C   0  0  0  0  0  0  0  0  0  0  0  0
   21.4100    2.1720   27.2170 F   0  0  0  0  0  0  0  0  0  0  0  0
   21.0080    3.7940   25.5610 C   0  0  0  0  0  0  0  0  0  0  0  0
   20.5990    5.0040   25.1470 N   0  0  0  0  0  0  0  0  0  0  0  0
  8  9  1  0
  9 10  1  0
 10 11  1  0
 10 12  2  0
 12 13  1  0
 13 14  1  0
 13  1  1  0
  1  2  2  0
  2  3  1  0
  3 21  1  0
 21 22  1  0
 22 23  2  0
 22 25  1  0
 25 26  2  0
 26 27  1  0
 27 28  2  0
 28 29  1  0
 28 30  1  0
 30 31  2  0
  3  4  2  0
  4  5  1  0
  5  6  2  0
  6  7  1  0
 13 15  1  0
 15 16  1  0
 16 17  2  0
 16 18  2  0
 16  9  1  0
  6  1  1  0
 31 25  1  0
 11 19  1  0
 11 20  1  0
 21 24  1  0
M  END
> <meeko>
{"is_sidechain": false}

> <source_group>
BACE1-401 observed AD isoform

> <source_system>
BACE1_verubecestat_401

> <source_run>
alternate_401_seed5519_ex32

> <source_seed>
5519

> <vina_pose_rank>
3

> <vina_affinity_kcal_mol>
-8.3970000000000002

> <vina_rmsd_to_crystal_angstrom>
8.3770000000000007

> <minimizedAffinity>
-8.56131

> <CNNscore>
0.1570514888

> <CNNaffinity>
4.9578070641

> <CNN_VS>
0.7786309719

> <CNNaffinity_variance>
0.7113800049

$$$$
BACE1_verubecestat_401__alternate_401_seed5519_ex32__pose04


 31 33  0  0  0  0  0  0  0  0999 V2000
   24.2220   11.7600   20.4690 C   0  0  0  0  0  0  0  0  0  0  0  0
   24.0190   12.2110   21.7730 C   0  0  0  0  0  0  0  0  0  0  0  0
   23.4150   11.4340   22.7350 C   0  0  0  0  0  0  0  0  0  0  0  0
   22.9600   10.1580   22.4250 C   0  0  0  0  0  0  0  0  0  0  0  0
   23.1560    9.6930   21.1360 C   0  0  0  0  0  0  0  0  0  0  0  0
   23.7930   10.4720   20.1900 C   0  0  0  0  0  0  0  0  0  0  0  0
   24.0000    9.9810   18.9420 F   0  0  0  0  0  0  0  0  0  0  0  0
   28.3480   13.5380   21.8730 C   0  0  0  0  0  0  0  0  0  0  0  0
   27.2320   13.2820   20.9410 N   0  0  0  0  0  0  0  0  0  0  0  0
   26.2190   14.2290   20.6740 C   0  0  0  0  0  0  0  0  0  0  0  0
   26.4450   15.4570   21.2350 N   0  0  0  0  0  0  0  0  0  0  0  0
   25.1750   13.9820   19.9440 N   0  0  0  0  0  0  0  0  0  0  0  0
   24.8960   12.6430   19.4300 C   0  0  0  0  0  0  0  0  0  0  0  0
   23.9060   12.9110   18.2930 C   0  0  0  0  0  0  0  0  0  0  0  0
   26.1420   12.0570   18.8030 C   0  0  0  0  0  0  0  0  0  0  0  0
   27.4120   11.8360   20.0230 S   0  0  0  0  0  0  0  0  0  0  0  0
   28.6800   11.9280   19.3220 O   0  0  0  0  0  0  0  0  0  0  0  0
   27.0800   10.7990   20.9500 O   0  0  0  0  0  0  0  0  0  0  0  0
   25.7940   16.1850   21.1050 H   0  0  0  0  0  0  0  0  0  0  0  0
   27.2580   15.6130   21.7680 H   0  0  0  0  0  0  0  0  0  0  0  0
   23.2680   12.0070   24.0050 N   0  0  0  0  0  0  0  0  0  0  0  0
   22.3090   12.9070   24.4330 C   0  0  0  0  0  0  0  0  0  0  0  0
   21.4880   13.4580   23.7120 O   0  0  0  0  0  0  0  0  0  0  0  0
   23.9330   11.7340   24.6780 H   0  0  0  0  0  0  0  0  0  0  0  0
   22.2920   13.1670   25.8930 C   0  0  0  0  0  0  0  0  0  0  0  0
   21.2520   12.6840   26.6690 C   0  0  0  0  0  0  0  0  0  0  0  0
   21.2850   12.9570   28.0250 C   0  0  0  0  0  0  0  0  0  0  0  0
   22.3340   13.6840   28.5540 C   0  0  0  0  0  0  0  0  0  0  0  0
   22.4040   13.9820   29.8630 F   0  0  0  0  0  0  0  0  0  0  0  0
   23.3190   14.1270   27.7010 C   0  0  0  0  0  0  0  0  0  0  0  0
   23.3110   13.8830   26.3800 N   0  0  0  0  0  0  0  0  0  0  0  0
  8  9  1  0
  9 10  1  0
 10 11  1  0
 10 12  2  0
 12 13  1  0
 13 14  1  0
 13  1  1  0
  1  2  2  0
  2  3  1  0
  3 21  1  0
 21 22  1  0
 22 23  2  0
 22 25  1  0
 25 26  2  0
 26 27  1  0
 27 28  2  0
 28 29  1  0
 28 30  1  0
 30 31  2  0
  3  4  2  0
  4  5  1  0
  5  6  2  0
  6  7  1  0
 13 15  1  0
 15 16  1  0
 16 17  2  0
 16 18  2  0
 16  9  1  0
  6  1  1  0
 31 25  1  0
 11 19  1  0
 11 20  1  0
 21 24  1  0
M  END
> <meeko>
{"is_sidechain": false}

> <source_group>
BACE1-401 observed AD isoform

> <source_system>
BACE1_verubecestat_401

> <source_run>
alternate_401_seed5519_ex32

> <source_seed>
5519

> <vina_pose_rank>
4

> <vina_affinity_kcal_mol>
-8.3309999999999995

> <vina_rmsd_to_crystal_angstrom>
7.1710000000000003

> <minimizedAffinity>
-8.38657

> <CNNscore>
0.5734117031

> <CNNaffinity>
5.5898394585

> <CNN_VS>
3.2052793503

> <CNNaffinity_variance>
0.1256808639

$$$$
BACE1_verubecestat_401__alternate_401_seed5519_ex32__pose05


 31 33  0  0  0  0  0  0  0  0999 V2000
   17.4370    5.8790   22.3300 C   0  0  0  0  0  0  0  0  0  0  0  0
   18.1750    5.2990   23.3610 C   0  0  0  0  0  0  0  0  0  0  0  0
   19.5490    5.2220   23.3290 C   0  0  0  0  0  0  0  0  0  0  0  0
   20.2560    5.7100   22.2370 C   0  0  0  0  0  0  0  0  0  0  0  0
   19.5400    6.2930   21.2070 C   0  0  0  0  0  0  0  0  0  0  0  0
   18.1640    6.3920   21.2670 C   0  0  0  0  0  0  0  0  0  0  0  0
   17.4870    6.9940   20.2560 F   0  0  0  0  0  0  0  0  0  0  0  0
   15.2730    2.1720   20.4000 C   0  0  0  0  0  0  0  0  0  0  0  0
   15.3720    3.4610   21.1130 N   0  0  0  0  0  0  0  0  0  0  0  0
   15.1210    4.7050   20.4930 C   0  0  0  0  0  0  0  0  0  0  0  0
   14.6310    4.6020   19.2180 N   0  0  0  0  0  0  0  0  0  0  0  0
   15.3070    5.8510   21.0720 N   0  0  0  0  0  0  0  0  0  0  0  0
   15.9190    5.9510   22.3960 C   0  0  0  0  0  0  0  0  0  0  0  0
   15.5110    7.3530   22.8570 C   0  0  0  0  0  0  0  0  0  0  0  0
   15.2710    4.9670   23.3440 C   0  0  0  0  0  0  0  0  0  0  0  0
   15.5690    3.2990   22.8150 S   0  0  0  0  0  0  0  0  0  0  0  0
   14.4560    2.5050   23.3030 O   0  0  0  0  0  0  0  0  0  0  0  0
   16.9430    2.9350   22.9670 O   0  0  0  0  0  0  0  0  0  0  0  0
   14.4240    5.4150   18.7030 H   0  0  0  0  0  0  0  0  0  0  0  0
   14.4850    3.7150   18.8170 H   0  0  0  0  0  0  0  0  0  0  0  0
   20.1690    4.6120   24.4270 N   0  0  0  0  0  0  0  0  0  0  0  0
   21.2680    3.7710   24.4330 C   0  0  0  0  0  0  0  0  0  0  0  0
   21.8100    3.3130   23.4360 O   0  0  0  0  0  0  0  0  0  0  0  0
   19.7720    4.8070   25.3070 H   0  0  0  0  0  0  0  0  0  0  0  0
   21.8170    3.4560   25.7750 C   0  0  0  0  0  0  0  0  0  0  0  0
   21.2120    3.9730   26.9080 C   0  0  0  0  0  0  0  0  0  0  0  0
   21.7670    3.6490   28.1330 C   0  0  0  0  0  0  0  0  0  0  0  0
   22.8820    2.8350   28.1890 C   0  0  0  0  0  0  0  0  0  0  0  0
   23.4610    2.5010   29.3550 F   0  0  0  0  0  0  0  0  0  0  0  0
   23.4160    2.3750   27.0070 C   0  0  0  0  0  0  0  0  0  0  0  0
   22.9030    2.6770   25.8030 N   0  0  0  0  0  0  0  0  0  0  0  0
  8  9  1  0
  9 10  1  0
 10 11  1  0
 10 12  2  0
 12 13  1  0
 13 14  1  0
 13  1  1  0
  1  2  2  0
  2  3  1  0
  3 21  1  0
 21 22  1  0
 22 23  2  0
 22 25  1  0
 25 26  2  0
 26 27  1  0
 27 28  2  0
 28 29  1  0
 28 30  1  0
 30 31  2  0
  3  4  2  0
  4  5  1  0
  5  6  2  0
  6  7  1  0
 13 15  1  0
 15 16  1  0
 16 17  2  0
 16 18  2  0
 16  9  1  0
  6  1  1  0
 31 25  1  0
 11 19  1  0
 11 20  1  0
 21 24  1  0
M  END
> <meeko>
{"is_sidechain": false}

> <source_group>
BACE1-401 observed AD isoform

> <source_system>
BACE1_verubecestat_401

> <source_run>
alternate_401_seed5519_ex32

> <source_seed>
5519

> <vina_pose_rank>
5

> <vina_affinity_kcal_mol>
-8.1760000000000002

> <vina_rmsd_to_crystal_angstrom>
9.6778999999999993

> <minimizedAffinity>
-9.05861

> <CNNscore>
0.2135756165

> <CNNaffinity>
5.6073126793

> <CNN_VS>
1.1975852251

> <CNNaffinity_variance>
0.0917053446

$$$$
BACE1_verubecestat_401__alternate_401_seed5519_ex32__pose06


 31 33  0  0  0  0  0  0  0  0999 V2000
   18.7210    7.3940   22.3950 C   0  0  0  0  0  0  0  0  0  0  0  0
   18.0200    6.6400   21.4550 C   0  0  0  0  0  0  0  0  0  0  0  0
   16.7120    6.9110   21.1220 C   0  0  0  0  0  0  0  0  0  0  0  0
   16.0290    7.9510   21.7400 C   0  0  0  0  0  0  0  0  0  0  0  0
   16.7110    8.7120   22.6730 C   0  0  0  0  0  0  0  0  0  0  0  0
   18.0330    8.4500   22.9740 C   0  0  0  0  0  0  0  0  0  0  0  0
   18.6880    9.2300   23.8710 F   0  0  0  0  0  0  0  0  0  0  0  0
   19.2710    5.4350   26.6390 C   0  0  0  0  0  0  0  0  0  0  0  0
   19.6930    5.9460   25.3190 N   0  0  0  0  0  0  0  0  0  0  0  0
   20.3130    7.2030   25.1420 C   0  0  0  0  0  0  0  0  0  0  0  0
   20.6260    7.8380   26.3150 N   0  0  0  0  0  0  0  0  0  0  0  0
   20.5910    7.7140   23.9830 N   0  0  0  0  0  0  0  0  0  0  0  0
   20.1670    7.0720   22.7390 C   0  0  0  0  0  0  0  0  0  0  0  0
   21.0800    7.7170   21.6920 C   0  0  0  0  0  0  0  0  0  0  0  0
   20.5040    5.5980   22.7740 C   0  0  0  0  0  0  0  0  0  0  0  0
   19.5950    4.7770   24.0590 S   0  0  0  0  0  0  0  0  0  0  0  0
   20.3950    3.6370   24.4680 O   0  0  0  0  0  0  0  0  0  0  0  0
   18.1990    4.7140   23.7590 O   0  0  0  0  0  0  0  0  0  0  0  0
   21.0620    8.7210   26.2950 H   0  0  0  0  0  0  0  0  0  0  0  0
   20.4160    7.4110   27.1770 H   0  0  0  0  0  0  0  0  0  0  0  0
   16.1220    6.0740   20.1650 N   0  0  0  0  0  0  0  0  0  0  0  0
   14.8160    5.6230   20.1100 C   0  0  0  0  0  0  0  0  0  0  0  0
   13.9770    5.7860   20.9860 O   0  0  0  0  0  0  0  0  0  0  0  0
   16.7130    5.7700   19.4390 H   0  0  0  0  0  0  0  0  0  0  0  0
   14.4400    4.9230   18.8580 C   0  0  0  0  0  0  0  0  0  0  0  0
   13.8490    5.6260   17.8230 C   0  0  0  0  0  0  0  0  0  0  0  0
   13.5170    4.9230   16.6790 C   0  0  0  0  0  0  0  0  0  0  0  0
   13.7830    3.5690   16.6020 C   0  0  0  0  0  0  0  0  0  0  0  0
   13.4710    2.8430   15.5150 F   0  0  0  0  0  0  0  0  0  0  0  0
   14.3690    2.9560   17.6860 C   0  0  0  0  0  0  0  0  0  0  0  0
   14.6970    3.6110   18.8120 N   0  0  0  0  0  0  0  0  0  0  0  0
  8  9  1  0
  9 10  1  0
 10 11  1  0
 10 12  2  0
 12 13  1  0
 13 14  1  0
 13  1  1  0
  1  2  2  0
  2  3  1  0
  3 21  1  0
 21 22  1  0
 22 23  2  0
 22 25  1  0
 25 26  2  0
 26 27  1  0
 27 28  2  0
 28 29  1  0
 28 30  1  0
 30 31  2  0
  3  4  2  0
  4  5  1  0
  5  6  2  0
  6  7  1  0
 13 15  1  0
 15 16  1  0
 16 17  2  0
 16 18  2  0
 16  9  1  0
  6  1  1  0
 31 25  1  0
 11 19  1  0
 11 20  1  0
 21 24  1  0
M  END
> <meeko>
{"is_sidechain": false}

> <source_group>
BACE1-401 observed AD isoform

> <source_system>
BACE1_verubecestat_401

> <source_run>
alternate_401_seed5519_ex32

> <source_seed>
5519

> <vina_pose_rank>
6

> <vina_affinity_kcal_mol>
-8.0289999999999999

> <vina_rmsd_to_crystal_angstrom>
11.237

> <minimizedAffinity>
-8.91017

> <CNNscore>
0.4399660230

> <CNNaffinity>
5.8869194984

> <CNN_VS>
2.5900444984

> <CNNaffinity_variance>
0.3931179941

$$$$
BACE1_verubecestat_401__alternate_401_seed5519_ex32__pose07


 31 33  0  0  0  0  0  0  0  0999 V2000
   16.5990    7.6260   21.4980 C   0  0  0  0  0  0  0  0  0  0  0  0
   17.4420    8.5030   22.1800 C   0  0  0  0  0  0  0  0  0  0  0  0
   16.9650    9.5890   22.8790 C   0  0  0  0  0  0  0  0  0  0  0  0
   15.6030    9.8630   22.9090 C   0  0  0  0  0  0  0  0  0  0  0  0
   14.7510    9.0010   22.2410 C   0  0  0  0  0  0  0  0  0  0  0  0
   15.2410    7.8980   21.5700 C   0  0  0  0  0  0  0  0  0  0  0  0
   14.3820    7.0520   20.9470 F   0  0  0  0  0  0  0  0  0  0  0  0
   19.3530    4.8330   24.0980 C   0  0  0  0  0  0  0  0  0  0  0  0
   18.6240    5.2710   22.8910 N   0  0  0  0  0  0  0  0  0  0  0  0
   19.2560    5.9030   21.7970 C   0  0  0  0  0  0  0  0  0  0  0  0
   20.6220    5.9360   21.8870 N   0  0  0  0  0  0  0  0  0  0  0  0
   18.6170    6.3900   20.7780 N   0  0  0  0  0  0  0  0  0  0  0  0
   17.1560    6.4340   20.7370 C   0  0  0  0  0  0  0  0  0  0  0  0
   16.8610    6.6170   19.2460 C   0  0  0  0  0  0  0  0  0  0  0  0
   16.5850    5.0920   21.1400 C   0  0  0  0  0  0  0  0  0  0  0  0
   16.9950    4.7180   22.8260 S   0  0  0  0  0  0  0  0  0  0  0  0
   17.0280    3.2700   22.9320 O   0  0  0  0  0  0  0  0  0  0  0  0
   16.3060    5.5750   23.7400 O   0  0  0  0  0  0  0  0  0  0  0  0
   21.1520    6.3560   21.1720 H   0  0  0  0  0  0  0  0  0  0  0  0
   21.0740    5.5400   22.6670 H   0  0  0  0  0  0  0  0  0  0  0  0
   17.9180   10.3920   23.5180 N   0  0  0  0  0  0  0  0  0  0  0  0
   17.8050   11.0630   24.7220 C   0  0  0  0  0  0  0  0  0  0  0  0
   16.7760   11.1660   25.3770 O   0  0  0  0  0  0  0  0  0  0  0  0
   18.7790   10.4900   23.0510 H   0  0  0  0  0  0  0  0  0  0  0  0
   19.0620   11.6580   25.2370 C   0  0  0  0  0  0  0  0  0  0  0  0
   19.7800   12.5440   24.4510 C   0  0  0  0  0  0  0  0  0  0  0  0
   20.9460   13.0670   24.9800 C   0  0  0  0  0  0  0  0  0  0  0  0
   21.3510   12.7010   26.2490 C   0  0  0  0  0  0  0  0  0  0  0  0
   22.4810   13.1760   26.8010 F   0  0  0  0  0  0  0  0  0  0  0  0
   20.5730   11.8090   26.9510 C   0  0  0  0  0  0  0  0  0  0  0  0
   19.4390   11.2800   26.4630 N   0  0  0  0  0  0  0  0  0  0  0  0
  8  9  1  0
  9 10  1  0
 10 11  1  0
 10 12  2  0
 12 13  1  0
 13 14  1  0
 13  1  1  0
  1  2  2  0
  2  3  1  0
  3 21  1  0
 21 22  1  0
 22 23  2  0
 22 25  1  0
 25 26  2  0
 26 27  1  0
 27 28  2  0
 28 29  1  0
 28 30  1  0
 30 31  2  0
  3  4  2  0
  4  5  1  0
  5  6  2  0
  6  7  1  0
 13 15  1  0
 15 16  1  0
 16 17  2  0
 16 18  2  0
 16  9  1  0
  6  1  1  0
 31 25  1  0
 11 19  1  0
 11 20  1  0
 21 24  1  0
M  END
> <meeko>
{"is_sidechain": false}

> <source_group>
BACE1-401 observed AD isoform

> <source_system>
BACE1_verubecestat_401

> <source_run>
alternate_401_seed5519_ex32

> <source_seed>
5519

> <vina_pose_rank>
7

> <vina_affinity_kcal_mol>
-8.0220000000000002

> <vina_rmsd_to_crystal_angstrom>
8.8948

> <minimizedAffinity>
-8.26726

> <CNNscore>
0.1370061934

> <CNNaffinity>
4.8948626518

> <CNN_VS>
0.6706265211

> <CNNaffinity_variance>
1.1693791151

$$$$
BACE1_verubecestat_401__alternate_401_seed5519_ex32__pose08


 31 33  0  0  0  0  0  0  0  0999 V2000
   24.9300   11.2370   19.8750 C   0  0  0  0  0  0  0  0  0  0  0  0
   24.1180   10.5380   20.7670 C   0  0  0  0  0  0  0  0  0  0  0  0
   24.2700    9.1890   20.9980 C   0  0  0  0  0  0  0  0  0  0  0  0
   25.2410    8.4640   20.3200 C   0  0  0  0  0  0  0  0  0  0  0  0
   26.0580    9.1420   19.4330 C   0  0  0  0  0  0  0  0  0  0  0  0
   25.9160   10.5020   19.2350 C   0  0  0  0  0  0  0  0  0  0  0  0
   26.7500   11.1490   18.3810 F   0  0  0  0  0  0  0  0  0  0  0  0
   25.5190   13.8500   23.7440 C   0  0  0  0  0  0  0  0  0  0  0  0
   25.2630   13.5890   22.3140 N   0  0  0  0  0  0  0  0  0  0  0  0
   23.9700   13.6250   21.7450 C   0  0  0  0  0  0  0  0  0  0  0  0
   22.9990   14.0710   22.6000 N   0  0  0  0  0  0  0  0  0  0  0  0
   23.7130   13.2920   20.5170 N   0  0  0  0  0  0  0  0  0  0  0  0
   24.7400   12.7280   19.6430 C   0  0  0  0  0  0  0  0  0  0  0  0
   24.1540   12.9400   18.2440 C   0  0  0  0  0  0  0  0  0  0  0  0
   26.0030   13.5550   19.7250 C   0  0  0  0  0  0  0  0  0  0  0  0
   26.6920   13.4900   21.3590 S   0  0  0  0  0  0  0  0  0  0  0  0
   27.4240   14.7290   21.5510 O   0  0  0  0  0  0  0  0  0  0  0  0
   27.2140   12.1930   21.6600 O   0  0  0  0  0  0  0  0  0  0  0  0
   22.0650   14.1320   22.2950 H   0  0  0  0  0  0  0  0  0  0  0  0
   23.2340   14.3320   23.5200 H   0  0  0  0  0  0  0  0  0  0  0  0
   23.3870    8.6070   21.9170 N   0  0  0  0  0  0  0  0  0  0  0  0
   22.6130    9.2340   22.8780 C   0  0  0  0  0  0  0  0  0  0  0  0
   22.6770   10.4210   23.1690 O   0  0  0  0  0  0  0  0  0  0  0  0
   23.3060    7.6270   21.8730 H   0  0  0  0  0  0  0  0  0  0  0  0
   21.6200    8.3660   23.5560 C   0  0  0  0  0  0  0  0  0  0  0  0
   21.0120    7.3370   22.8600 C   0  0  0  0  0  0  0  0  0  0  0  0
   20.0920    6.5600   23.5410 C   0  0  0  0  0  0  0  0  0  0  0  0
   19.8160    6.8250   24.8690 C   0  0  0  0  0  0  0  0  0  0  0  0
   18.9240    6.1040   25.5690 F   0  0  0  0  0  0  0  0  0  0  0  0
   20.4690    7.8750   25.4740 C   0  0  0  0  0  0  0  0  0  0  0  0
   21.3620    8.6500   24.8370 N   0  0  0  0  0  0  0  0  0  0  0  0
  8  9  1  0
  9 10  1  0
 10 11  1  0
 10 12  2  0
 12 13  1  0
 13 14  1  0
 13  1  1  0
  1  2  2  0
  2  3  1  0
  3 21  1  0
 21 22  1  0
 22 23  2  0
 22 25  1  0
 25 26  2  0
 26 27  1  0
 27 28  2  0
 28 29  1  0
 28 30  1  0
 30 31  2  0
  3  4  2  0
  4  5  1  0
  5  6  2  0
  6  7  1  0
 13 15  1  0
 15 16  1  0
 16 17  2  0
 16 18  2  0
 16  9  1  0
  6  1  1  0
 31 25  1  0
 11 19  1  0
 11 20  1  0
 21 24  1  0
M  END
> <meeko>
{"is_sidechain": false}

> <source_group>
BACE1-401 observed AD isoform

> <source_system>
BACE1_verubecestat_401

> <source_run>
alternate_401_seed5519_ex32

> <source_seed>
5519

> <vina_pose_rank>
8

> <vina_affinity_kcal_mol>
-7.7030000000000003

> <vina_rmsd_to_crystal_angstrom>
6.5533999999999999

> <minimizedAffinity>
-8.09912

> <CNNscore>
0.3166635334

> <CNNaffinity>
5.4030318260

> <CNN_VS>
1.7109431028

> <CNNaffinity_variance>
0.1383898407

$$$$
BACE1_verubecestat_401__alternate_401_seed5519_ex32__pose09


 31 33  0  0  0  0  0  0  0  0999 V2000
   19.4410   11.1150   25.0840 C   0  0  0  0  0  0  0  0  0  0  0  0
   19.9020    9.8000   25.1290 C   0  0  0  0  0  0  0  0  0  0  0  0
   19.1190    8.7320   24.7530 C   0  0  0  0  0  0  0  0  0  0  0  0
   17.8120    8.9330   24.3290 C   0  0  0  0  0  0  0  0  0  0  0  0
   17.3380   10.2320   24.2740 C   0  0  0  0  0  0  0  0  0  0  0  0
   18.1460   11.2970   24.6240 C   0  0  0  0  0  0  0  0  0  0  0  0
   17.6670   12.5640   24.5340 F   0  0  0  0  0  0  0  0  0  0  0  0
   19.0520   12.2590   29.6330 C   0  0  0  0  0  0  0  0  0  0  0  0
   19.5820   12.3410   28.2570 N   0  0  0  0  0  0  0  0  0  0  0  0
   19.1930   13.3430   27.3410 C   0  0  0  0  0  0  0  0  0  0  0  0
   18.4010   14.3170   27.8860 N   0  0  0  0  0  0  0  0  0  0  0  0
   19.5650   13.3680   26.0980 N   0  0  0  0  0  0  0  0  0  0  0  0
   20.3320   12.2740   25.5040 C   0  0  0  0  0  0  0  0  0  0  0  0
   20.9300   12.9170   24.2490 C   0  0  0  0  0  0  0  0  0  0  0  0
   21.4870   11.9000   26.4050 C   0  0  0  0  0  0  0  0  0  0  0  0
   20.8950   11.2700   27.9550 S   0  0  0  0  0  0  0  0  0  0  0  0
   21.9220   11.5600   28.9390 O   0  0  0  0  0  0  0  0  0  0  0  0
   20.2680    9.9950   27.8000 O   0  0  0  0  0  0  0  0  0  0  0  0
   18.0780   15.0600   27.3260 H   0  0  0  0  0  0  0  0  0  0  0  0
   18.1530   14.2760   28.8380 H   0  0  0  0  0  0  0  0  0  0  0  0
   19.7020    7.4620   24.8480 N   0  0  0  0  0  0  0  0  0  0  0  0
   20.5830    6.8550   23.9700 C   0  0  0  0  0  0  0  0  0  0  0  0
   20.9010    7.2970   22.8740 O   0  0  0  0  0  0  0  0  0  0  0  0
   19.4540    6.9340   25.6410 H   0  0  0  0  0  0  0  0  0  0  0  0
   21.1880    5.5900   24.4540 C   0  0  0  0  0  0  0  0  0  0  0  0
   20.5280    4.8260   25.4010 C   0  0  0  0  0  0  0  0  0  0  0  0
   21.1400    3.6570   25.8180 C   0  0  0  0  0  0  0  0  0  0  0  0
   22.3630    3.2930   25.2870 C   0  0  0  0  0  0  0  0  0  0  0  0
   22.9990    2.1720   25.6680 F   0  0  0  0  0  0  0  0  0  0  0  0
   22.9430    4.1220   24.3550 C   0  0  0  0  0  0  0  0  0  0  0  0
   22.3770    5.2660   23.9350 N   0  0  0  0  0  0  0  0  0  0  0  0
  8  9  1  0
  9 10  1  0
 10 11  1  0
 10 12  2  0
 12 13  1  0
 13 14  1  0
 13  1  1  0
  1  2  2  0
  2  3  1  0
  3 21  1  0
 21 22  1  0
 22 23  2  0
 22 25  1  0
 25 26  2  0
 26 27  1  0
 27 28  2  0
 28 29  1  0
 28 30  1  0
 30 31  2  0
  3  4  2  0
  4  5  1  0
  5  6  2  0
  6  7  1  0
 13 15  1  0
 15 16  1  0
 16 17  2  0
 16 18  2  0
 16  9  1  0
  6  1  1  0
 31 25  1  0
 11 19  1  0
 11 20  1  0
 21 24  1  0
M  END
> <meeko>
{"is_sidechain": false}

> <source_group>
BACE1-401 observed AD isoform

> <source_system>
BACE1_verubecestat_401

> <source_run>
alternate_401_seed5519_ex32

> <source_seed>
5519

> <vina_pose_rank>
9

> <vina_affinity_kcal_mol>
-7.6920000000000002

> <vina_rmsd_to_crystal_angstrom>
7.6936999999999998

> <minimizedAffinity>
-8.36146

> <CNNscore>
0.0478669591

> <CNNaffinity>
4.1046624184

> <CNN_VS>
0.1964777112

> <CNNaffinity_variance>
1.0788007975

$$$$
BACE1_verubecestat_401__alternate_401_seed5519_ex32__pose10


 31 33  0  0  0  0  0  0  0  0999 V2000
   17.9770    7.1280   22.7960 C   0  0  0  0  0  0  0  0  0  0  0  0
   19.1340    6.4380   22.4350 C   0  0  0  0  0  0  0  0  0  0  0  0
   20.0030    5.9190   23.3670 C   0  0  0  0  0  0  0  0  0  0  0  0
   19.7620    6.0890   24.7240 C   0  0  0  0  0  0  0  0  0  0  0  0
   18.6170    6.7680   25.1020 C   0  0  0  0  0  0  0  0  0  0  0  0
   17.7380    7.2560   24.1560 C   0  0  0  0  0  0  0  0  0  0  0  0
   16.6060    7.8930   24.5530 F   0  0  0  0  0  0  0  0  0  0  0  0
   16.5350    3.9360   19.6530 C   0  0  0  0  0  0  0  0  0  0  0  0
   16.6090    5.2610   20.2990 N   0  0  0  0  0  0  0  0  0  0  0  0
   17.3700    6.3310   19.7770 C   0  0  0  0  0  0  0  0  0  0  0  0
   17.9080    6.0790   18.5430 N   0  0  0  0  0  0  0  0  0  0  0  0
   17.5340    7.4650   20.3860 N   0  0  0  0  0  0  0  0  0  0  0  0
   17.0350    7.6870   21.7420 C   0  0  0  0  0  0  0  0  0  0  0  0
   17.0170    9.2140   21.8540 C   0  0  0  0  0  0  0  0  0  0  0  0
   15.6010    7.2180   21.8510 C   0  0  0  0  0  0  0  0  0  0  0  0
   15.4930    5.4650   21.5940 S   0  0  0  0  0  0  0  0  0  0  0  0
   14.1670    5.2050   21.0630 O   0  0  0  0  0  0  0  0  0  0  0  0
   16.0840    4.7360   22.6730 O   0  0  0  0  0  0  0  0  0  0  0  0
   18.4550    6.7650   18.0960 H   0  0  0  0  0  0  0  0  0  0  0  0
   17.7480    5.2130   18.1030 H   0  0  0  0  0  0  0  0  0  0  0  0
   21.1300    5.2510   22.8710 N   0  0  0  0  0  0  0  0  0  0  0  0
   22.3690    5.7780   22.5530 C   0  0  0  0  0  0  0  0  0  0  0  0
   22.6430    6.9710   22.5350 O   0  0  0  0  0  0  0  0  0  0  0  0
   21.0270    4.2810   22.7310 H   0  0  0  0  0  0  0  0  0  0  0  0
   23.4230    4.7800   22.2510 C   0  0  0  0  0  0  0  0  0  0  0  0
   23.5030    3.6130   22.9910 C   0  0  0  0  0  0  0  0  0  0  0  0
   24.5080    2.7180   22.6680 C   0  0  0  0  0  0  0  0  0  0  0  0
   25.3800    3.0060   21.6360 C   0  0  0  0  0  0  0  0  0  0  0  0
   26.3760    2.1720   21.2920 F   0  0  0  0  0  0  0  0  0  0  0  0
   25.2230    4.1960   20.9610 C   0  0  0  0  0  0  0  0  0  0  0  0
   24.2620    5.0860   21.2560 N   0  0  0  0  0  0  0  0  0  0  0  0
  8  9  1  0
  9 10  1  0
 10 11  1  0
 10 12  2  0
 12 13  1  0
 13 14  1  0
 13  1  1  0
  1  2  2  0
  2  3  1  0
  3 21  1  0
 21 22  1  0
 22 23  2  0
 22 25  1  0
 25 26  2  0
 26 27  1  0
 27 28  2  0
 28 29  1  0
 28 30  1  0
 30 31  2  0
  3  4  2  0
  4  5  1  0
  5  6  2  0
  6  7  1  0
 13 15  1  0
 15 16  1  0
 16 17  2  0
 16 18  2  0
 16  9  1  0
  6  1  1  0
 31 25  1  0
 11 19  1  0
 11 20  1  0
 21 24  1  0
M  END
> <meeko>
{"is_sidechain": false}

> <source_group>
BACE1-401 observed AD isoform

> <source_system>
BACE1_verubecestat_401

> <source_run>
alternate_401_seed5519_ex32

> <source_seed>
5519

> <vina_pose_rank>
10

> <vina_affinity_kcal_mol>
-7.6539999999999999

> <vina_rmsd_to_crystal_angstrom>
8.0222999999999995

> <minimizedAffinity>
-7.64700

> <CNNscore>
0.0942964777

> <CNNaffinity>
4.5472502708

> <CNN_VS>
0.4287896752

> <CNNaffinity_variance>
0.8127340674

$$$$
BACE1_verubecestat_401__alternate_401_seed5519_ex32__pose11


 31 33  0  0  0  0  0  0  0  0999 V2000
   25.3300   10.9440   19.6520 C   0  0  0  0  0  0  0  0  0  0  0  0
   25.9670    9.8640   20.2610 C   0  0  0  0  0  0  0  0  0  0  0  0
   26.1230    8.6500   19.6310 C   0  0  0  0  0  0  0  0  0  0  0  0
   25.6200    8.4530   18.3510 C   0  0  0  0  0  0  0  0  0  0  0  0
   24.9880    9.5150   17.7300 C   0  0  0  0  0  0  0  0  0  0  0  0
   24.8670   10.7370   18.3620 C   0  0  0  0  0  0  0  0  0  0  0  0
   24.2680   11.7720   17.7180 F   0  0  0  0  0  0  0  0  0  0  0  0
   29.4160   12.8770   20.9620 C   0  0  0  0  0  0  0  0  0  0  0  0
   27.9520   12.7910   20.7960 N   0  0  0  0  0  0  0  0  0  0  0  0
   27.0760   12.4430   21.8480 C   0  0  0  0  0  0  0  0  0  0  0  0
   27.6880   12.3420   23.0690 N   0  0  0  0  0  0  0  0  0  0  0  0
   25.8020   12.2570   21.6950 N   0  0  0  0  0  0  0  0  0  0  0  0
   25.1770   12.2740   20.3730 C   0  0  0  0  0  0  0  0  0  0  0  0
   23.6960   12.4930   20.6970 C   0  0  0  0  0  0  0  0  0  0  0  0
   25.6430   13.4830   19.5940 C   0  0  0  0  0  0  0  0  0  0  0  0
   27.3890   13.3950   19.2860 S   0  0  0  0  0  0  0  0  0  0  0  0
   27.8580   14.7640   19.1690 O   0  0  0  0  0  0  0  0  0  0  0  0
   27.7090   12.3540   18.3600 O   0  0  0  0  0  0  0  0  0  0  0  0
   27.1600   12.1030   23.8650 H   0  0  0  0  0  0  0  0  0  0  0  0
   28.6550   12.5070   23.1510 H   0  0  0  0  0  0  0  0  0  0  0  0
   26.7800    7.6470   20.3550 N   0  0  0  0  0  0  0  0  0  0  0  0
   26.2290    6.5450   20.9850 C   0  0  0  0  0  0  0  0  0  0  0  0
   25.0310    6.3360   21.1190 O   0  0  0  0  0  0  0  0  0  0  0  0
   27.7580    7.7380   20.4240 H   0  0  0  0  0  0  0  0  0  0  0  0
   27.2070    5.5500   21.4890 C   0  0  0  0  0  0  0  0  0  0  0  0
   28.5600    5.7350   21.2640 C   0  0  0  0  0  0  0  0  0  0  0  0
   29.4270    4.7750   21.7550 C   0  0  0  0  0  0  0  0  0  0  0  0
   28.9290    3.6860   22.4440 C   0  0  0  0  0  0  0  0  0  0  0  0
   29.7320    2.7240   22.9300 F   0  0  0  0  0  0  0  0  0  0  0  0
   27.5670    3.5860   22.6110 C   0  0  0  0  0  0  0  0  0  0  0  0
   26.7000    4.4990   22.1410 N   0  0  0  0  0  0  0  0  0  0  0  0
  8  9  1  0
  9 10  1  0
 10 11  1  0
 10 12  2  0
 12 13  1  0
 13 14  1  0
 13  1  1  0
  1  2  2  0
  2  3  1  0
  3 21  1  0
 21 22  1  0
 22 23  2  0
 22 25  1  0
 25 26  2  0
 26 27  1  0
 27 28  2  0
 28 29  1  0
 28 30  1  0
 30 31  2  0
  3  4  2  0
  4  5  1  0
  5  6  2  0
  6  7  1  0
 13 15  1  0
 15 16  1  0
 16 17  2  0
 16 18  2  0
 16  9  1  0
  6  1  1  0
 31 25  1  0
 11 19  1  0
 11 20  1  0
 21 24  1  0
M  END
> <meeko>
{"is_sidechain": false}

> <source_group>
BACE1-401 observed AD isoform

> <source_system>
BACE1_verubecestat_401

> <source_run>
alternate_401_seed5519_ex32

> <source_seed>
5519

> <vina_pose_rank>
11

> <vina_affinity_kcal_mol>
-7.6040000000000001

> <vina_rmsd_to_crystal_angstrom>
5.2187999999999999

> <minimizedAffinity>
-7.58286

> <CNNscore>
0.1797733009

> <CNNaffinity>
5.0007739067

> <CNN_VS>
0.8990056515

> <CNNaffinity_variance>
0.2970463336

$$$$
BACE1_verubecestat_401__alternate_401_seed5519_ex32__pose12


 31 33  0  0  0  0  0  0  0  0999 V2000
   19.6810   11.1150   25.2110 C   0  0  0  0  0  0  0  0  0  0  0  0
   18.8770   10.5510   24.2230 C   0  0  0  0  0  0  0  0  0  0  0  0
   18.6930    9.1910   24.1110 C   0  0  0  0  0  0  0  0  0  0  0  0
   19.3340    8.3210   24.9840 C   0  0  0  0  0  0  0  0  0  0  0  0
   20.1330    8.8640   25.9740 C   0  0  0  0  0  0  0  0  0  0  0  0
   20.2830   10.2310   26.0940 C   0  0  0  0  0  0  0  0  0  0  0  0
   21.0500   10.7400   27.0920 F   0  0  0  0  0  0  0  0  0  0  0  0
   15.8770   13.3850   26.8000 C   0  0  0  0  0  0  0  0  0  0  0  0
   17.2660   13.2430   26.3220 N   0  0  0  0  0  0  0  0  0  0  0  0
   17.6650   13.5680   25.0070 C   0  0  0  0  0  0  0  0  0  0  0  0
   16.6860   14.1670   24.2610 N   0  0  0  0  0  0  0  0  0  0  0  0
   18.8550   13.3480   24.5380 N   0  0  0  0  0  0  0  0  0  0  0  0
   19.8620   12.6220   25.3110 C   0  0  0  0  0  0  0  0  0  0  0  0
   21.1710   13.0100   24.6170 C   0  0  0  0  0  0  0  0  0  0  0  0
   19.9290   13.1680   26.7190 C   0  0  0  0  0  0  0  0  0  0  0  0
   18.3970   12.8930   27.5720 S   0  0  0  0  0  0  0  0  0  0  0  0
   18.2800   13.9460   28.5650 O   0  0  0  0  0  0  0  0  0  0  0  0
   18.1870   11.5050   27.8440 O   0  0  0  0  0  0  0  0  0  0  0  0
   16.8680   14.4310   23.3300 H   0  0  0  0  0  0  0  0  0  0  0  0
   15.7990   14.3350   24.6560 H   0  0  0  0  0  0  0  0  0  0  0  0
   17.8620    8.7530   23.0720 N   0  0  0  0  0  0  0  0  0  0  0  0
   18.1570    7.8630   22.0550 C   0  0  0  0  0  0  0  0  0  0  0  0
   19.2670    7.4010   21.8240 O   0  0  0  0  0  0  0  0  0  0  0  0
   16.9510    9.1270   23.0650 H   0  0  0  0  0  0  0  0  0  0  0  0
   17.0010    7.4380   21.2290 C   0  0  0  0  0  0  0  0  0  0  0  0
   15.7270    7.4380   21.7710 C   0  0  0  0  0  0  0  0  0  0  0  0
   14.6860    7.0300   20.9570 C   0  0  0  0  0  0  0  0  0  0  0  0
   14.9400    6.6480   19.6540 C   0  0  0  0  0  0  0  0  0  0  0  0
   13.9630    6.2360   18.8290 F   0  0  0  0  0  0  0  0  0  0  0  0
   16.2420    6.6770   19.2070 C   0  0  0  0  0  0  0  0  0  0  0  0
   17.2740    7.0620   19.9760 N   0  0  0  0  0  0  0  0  0  0  0  0
  8  9  1  0
  9 10  1  0
 10 11  1  0
 10 12  2  0
 12 13  1  0
 13 14  1  0
 13  1  1  0
  1  2  2  0
  2  3  1  0
  3 21  1  0
 21 22  1  0
 22 23  2  0
 22 25  1  0
 25 26  2  0
 26 27  1  0
 27 28  2  0
 28 29  1  0
 28 30  1  0
 30 31  2  0
  3  4  2  0
  4  5  1  0
  5  6  2  0
  6  7  1  0
 13 15  1  0
 15 16  1  0
 16 17  2  0
 16 18  2  0
 16  9  1  0
  6  1  1  0
 31 25  1  0
 11 19  1  0
 11 20  1  0
 21 24  1  0
M  END
> <meeko>
{"is_sidechain": false}

> <source_group>
BACE1-401 observed AD isoform

> <source_system>
BACE1_verubecestat_401

> <source_run>
alternate_401_seed5519_ex32

> <source_seed>
5519

> <vina_pose_rank>
12

> <vina_affinity_kcal_mol>
-7.5940000000000003

> <vina_rmsd_to_crystal_angstrom>
9.7081999999999997

> <minimizedAffinity>
-7.93219

> <CNNscore>
0.1571452916

> <CNNaffinity>
5.1271834373

> <CNN_VS>
0.8057127595

> <CNNaffinity_variance>
0.3848599494

$$$$
BACE1_verubecestat_401__alternate_401_seed5519_ex32__pose13


 31 33  0  0  0  0  0  0  0  0999 V2000
   18.1780    7.8010   23.0060 C   0  0  0  0  0  0  0  0  0  0  0  0
   19.0890    8.7670   23.4310 C   0  0  0  0  0  0  0  0  0  0  0  0
   18.7120    9.8510   24.1920 C   0  0  0  0  0  0  0  0  0  0  0  0
   17.3810   10.0300   24.5490 C   0  0  0  0  0  0  0  0  0  0  0  0
   16.4640    9.0790   24.1390 C   0  0  0  0  0  0  0  0  0  0  0  0
   16.8620    7.9800   23.4030 C   0  0  0  0  0  0  0  0  0  0  0  0
   15.9470    7.0460   23.0380 F   0  0  0  0  0  0  0  0  0  0  0  0
   21.9790    5.6060   24.7060 C   0  0  0  0  0  0  0  0  0  0  0  0
   20.8500    5.8390   23.7820 N   0  0  0  0  0  0  0  0  0  0  0  0
   21.0070    6.4320   22.5100 C   0  0  0  0  0  0  0  0  0  0  0  0
   22.3110    6.6320   22.1470 N   0  0  0  0  0  0  0  0  0  0  0  0
   20.0160    6.7430   21.7320 N   0  0  0  0  0  0  0  0  0  0  0  0
   18.6270    6.6130   22.1690 C   0  0  0  0  0  0  0  0  0  0  0  0
   17.8510    6.6180   20.8490 C   0  0  0  0  0  0  0  0  0  0  0  0
   18.4070    5.2600   22.8070 C   0  0  0  0  0  0  0  0  0  0  0  0
   19.3790    5.0980   24.2830 S   0  0  0  0  0  0  0  0  0  0  0  0
   19.6470    3.6800   24.4490 O   0  0  0  0  0  0  0  0  0  0  0  0
   18.9030    5.9530   25.3250 O   0  0  0  0  0  0  0  0  0  0  0  0
   22.5230    7.0400   21.2760 H   0  0  0  0  0  0  0  0  0  0  0  0
   23.0380    6.3670   22.7550 H   0  0  0  0  0  0  0  0  0  0  0  0
   19.7250   10.7490   24.5500 N   0  0  0  0  0  0  0  0  0  0  0  0
   20.5100   10.7470   25.6890 C   0  0  0  0  0  0  0  0  0  0  0  0
   20.3500   10.0090   26.6530 O   0  0  0  0  0  0  0  0  0  0  0  0
   19.9020   11.4750   23.9080 H   0  0  0  0  0  0  0  0  0  0  0  0
   21.6410   11.7060   25.6820 C   0  0  0  0  0  0  0  0  0  0  0  0
   22.4340   11.8300   24.5540 C   0  0  0  0  0  0  0  0  0  0  0  0
   23.4770   12.7390   24.6030 C   0  0  0  0  0  0  0  0  0  0  0  0
   23.6880   13.4820   25.7480 C   0  0  0  0  0  0  0  0  0  0  0  0
   24.6930   14.3690   25.8450 F   0  0  0  0  0  0  0  0  0  0  0  0
   22.8490   13.2830   26.8210 C   0  0  0  0  0  0  0  0  0  0  0  0
   21.8330   12.4050   26.8050 N   0  0  0  0  0  0  0  0  0  0  0  0
  8  9  1  0
  9 10  1  0
 10 11  1  0
 10 12  2  0
 12 13  1  0
 13 14  1  0
 13  1  1  0
  1  2  2  0
  2  3  1  0
  3 21  1  0
 21 22  1  0
 22 23  2  0
 22 25  1  0
 25 26  2  0
 26 27  1  0
 27 28  2  0
 28 29  1  0
 28 30  1  0
 30 31  2  0
  3  4  2  0
  4  5  1  0
  5  6  2  0
  6  7  1  0
 13 15  1  0
 15 16  1  0
 16 17  2  0
 16 18  2  0
 16  9  1  0
  6  1  1  0
 31 25  1  0
 11 19  1  0
 11 20  1  0
 21 24  1  0
M  END
> <meeko>
{"is_sidechain": false}

> <source_group>
BACE1-401 observed AD isoform

> <source_system>
BACE1_verubecestat_401

> <source_run>
alternate_401_seed5519_ex32

> <source_seed>
5519

> <vina_pose_rank>
13

> <vina_affinity_kcal_mol>
-7.5609999999999999

> <vina_rmsd_to_crystal_angstrom>
7.5191999999999997

> <minimizedAffinity>
-7.59104

> <CNNscore>
0.0317167342

> <CNNaffinity>
4.4748816490

> <CNN_VS>
0.1419286281

> <CNNaffinity_variance>
0.5412307382

$$$$
BACE1_verubecestat_401__alternate_401_seed5519_ex32__pose14


 31 33  0  0  0  0  0  0  0  0999 V2000
   25.2570   12.5790   20.6980 C   0  0  0  0  0  0  0  0  0  0  0  0
   24.3550   12.5200   21.7590 C   0  0  0  0  0  0  0  0  0  0  0  0
   23.6090   11.3950   22.0300 C   0  0  0  0  0  0  0  0  0  0  0  0
   23.7170   10.2690   21.2250 C   0  0  0  0  0  0  0  0  0  0  0  0
   24.6110   10.3080   20.1690 C   0  0  0  0  0  0  0  0  0  0  0  0
   25.3760   11.4320   19.9290 C   0  0  0  0  0  0  0  0  0  0  0  0
   26.2670   11.4340   18.9040 F   0  0  0  0  0  0  0  0  0  0  0  0
   27.6910   14.1080   24.4250 C   0  0  0  0  0  0  0  0  0  0  0  0
   27.2220   14.1020   23.0250 N   0  0  0  0  0  0  0  0  0  0  0  0
   26.2290   14.9820   22.5420 C   0  0  0  0  0  0  0  0  0  0  0  0
   25.8500   15.9410   23.4430 N   0  0  0  0  0  0  0  0  0  0  0  0
   25.7280   14.9190   21.3470 N   0  0  0  0  0  0  0  0  0  0  0  0
   26.0690   13.8350   20.4270 C   0  0  0  0  0  0  0  0  0  0  0  0
   25.6630   14.4020   19.0640 C   0  0  0  0  0  0  0  0  0  0  0  0
   27.5680   13.6350   20.3950 C   0  0  0  0  0  0  0  0  0  0  0  0
   28.1650   13.1080   21.9810 S   0  0  0  0  0  0  0  0  0  0  0  0
   29.5390   13.5650   22.0800 O   0  0  0  0  0  0  0  0  0  0  0  0
   27.7350   11.7810   22.2920 O   0  0  0  0  0  0  0  0  0  0  0  0
   25.1630   16.6020   23.1990 H   0  0  0  0  0  0  0  0  0  0  0  0
   26.2650   15.9690   24.3360 H   0  0  0  0  0  0  0  0  0  0  0  0
   22.7370   11.4690   23.1240 N   0  0  0  0  0  0  0  0  0  0  0  0
   23.0130   11.8880   24.4130 C   0  0  0  0  0  0  0  0  0  0  0  0
   24.1280   12.1480   24.8460 O   0  0  0  0  0  0  0  0  0  0  0  0
   21.8090   11.1870   22.9530 H   0  0  0  0  0  0  0  0  0  0  0  0
   21.8300   12.0530   25.2930 C   0  0  0  0  0  0  0  0  0  0  0  0
   20.7270   12.7580   24.8420 C   0  0  0  0  0  0  0  0  0  0  0  0
   19.6530   12.8820   25.7050 C   0  0  0  0  0  0  0  0  0  0  0  0
   19.7080   12.3100   26.9610 C   0  0  0  0  0  0  0  0  0  0  0  0
   18.6930   12.4120   27.8360 F   0  0  0  0  0  0  0  0  0  0  0  0
   20.8510   11.6320   27.3200 C   0  0  0  0  0  0  0  0  0  0  0  0
   21.9120   11.4990   26.5070 N   0  0  0  0  0  0  0  0  0  0  0  0
  8  9  1  0
  9 10  1  0
 10 11  1  0
 10 12  2  0
 12 13  1  0
 13 14  1  0
 13  1  1  0
  1  2  2  0
  2  3  1  0
  3 21  1  0
 21 22  1  0
 22 23  2  0
 22 25  1  0
 25 26  2  0
 26 27  1  0
 27 28  2  0
 28 29  1  0
 28 30  1  0
 30 31  2  0
  3  4  2  0
  4  5  1  0
  5  6  2  0
  6  7  1  0
 13 15  1  0
 15 16  1  0
 16 17  2  0
 16 18  2  0
 16  9  1  0
  6  1  1  0
 31 25  1  0
 11 19  1  0
 11 20  1  0
 21 24  1  0
M  END
> <meeko>
{"is_sidechain": false}

> <source_group>
BACE1-401 observed AD isoform

> <source_system>
BACE1_verubecestat_401

> <source_run>
alternate_401_seed5519_ex32

> <source_seed>
5519

> <vina_pose_rank>
14

> <vina_affinity_kcal_mol>
-7.5339999999999998

> <vina_rmsd_to_crystal_angstrom>
7.3997999999999999

> <minimizedAffinity>
-7.67249

> <CNNscore>
0.0402180403

> <CNNaffinity>
4.4548373222

> <CNN_VS>
0.1791648269

> <CNNaffinity_variance>
0.6626408100

$$$$
BACE1_verubecestat_401__alternate_401_seed5519_ex32__pose15


 31 33  0  0  0  0  0  0  0  0999 V2000
   20.8420    6.6570   23.8850 C   0  0  0  0  0  0  0  0  0  0  0  0
   21.4280    7.7420   23.2340 C   0  0  0  0  0  0  0  0  0  0  0  0
   22.5250    7.6040   22.4140 C   0  0  0  0  0  0  0  0  0  0  0  0
   23.1080    6.3580   22.2220 C   0  0  0  0  0  0  0  0  0  0  0  0
   22.5380    5.2690   22.8580 C   0  0  0  0  0  0  0  0  0  0  0  0
   21.4180    5.4170   23.6520 C   0  0  0  0  0  0  0  0  0  0  0  0
   20.8600    4.3280   24.2410 F   0  0  0  0  0  0  0  0  0  0  0  0
   17.0760    8.3880   21.6550 C   0  0  0  0  0  0  0  0  0  0  0  0
   17.8450    7.8480   22.7940 N   0  0  0  0  0  0  0  0  0  0  0  0
   18.3730    8.6610   23.8210 C   0  0  0  0  0  0  0  0  0  0  0  0
   17.9810    9.9710   23.7490 N   0  0  0  0  0  0  0  0  0  0  0  0
   19.1400    8.2190   24.7690 N   0  0  0  0  0  0  0  0  0  0  0  0
   19.6290    6.8410   24.7820 C   0  0  0  0  0  0  0  0  0  0  0  0
   20.0560    6.6430   26.2390 C   0  0  0  0  0  0  0  0  0  0  0  0
   18.4870    5.8840   24.5210 C   0  0  0  0  0  0  0  0  0  0  0  0
   17.8220    6.1300   22.8940 S   0  0  0  0  0  0  0  0  0  0  0  0
   16.4300    5.7210   22.9500 O   0  0  0  0  0  0  0  0  0  0  0  0
   18.7410    5.7160   21.8800 O   0  0  0  0  0  0  0  0  0  0  0  0
   18.2980   10.6170   24.4220 H   0  0  0  0  0  0  0  0  0  0  0  0
   17.3830   10.2680   23.0260 H   0  0  0  0  0  0  0  0  0  0  0  0
   23.0170    8.7750   21.8220 N   0  0  0  0  0  0  0  0  0  0  0  0
   24.2040    8.9530   21.1340 C   0  0  0  0  0  0  0  0  0  0  0  0
   25.0970    8.1210   21.0420 O   0  0  0  0  0  0  0  0  0  0  0  0
   22.4450    9.5720   21.9070 H   0  0  0  0  0  0  0  0  0  0  0  0
   24.3450   10.2580   20.4430 C   0  0  0  0  0  0  0  0  0  0  0  0
   23.3680   10.6810   19.5590 C   0  0  0  0  0  0  0  0  0  0  0  0
   23.5520   11.9060   18.9410 C   0  0  0  0  0  0  0  0  0  0  0  0
   24.6780   12.6550   19.2210 C   0  0  0  0  0  0  0  0  0  0  0  0
   24.9040   13.8450   18.6380 F   0  0  0  0  0  0  0  0  0  0  0  0
   25.5970   12.1470   20.1100 C   0  0  0  0  0  0  0  0  0  0  0  0
   25.4490   10.9600   20.7210 N   0  0  0  0  0  0  0  0  0  0  0  0
  8  9  1  0
  9 10  1  0
 10 11  1  0
 10 12  2  0
 12 13  1  0
 13 14  1  0
 13  1  1  0
  1  2  2  0
  2  3  1  0
  3 21  1  0
 21 22  1  0
 22 23  2  0
 22 25  1  0
 25 26  2  0
 26 27  1  0
 27 28  2  0
 28 29  1  0
 28 30  1  0
 30 31  2  0
  3  4  2  0
  4  5  1  0
  5  6  2  0
  6  7  1  0
 13 15  1  0
 15 16  1  0
 16 17  2  0
 16 18  2  0
 16  9  1  0
  6  1  1  0
 31 25  1  0
 11 19  1  0
 11 20  1  0
 21 24  1  0
M  END
> <meeko>
{"is_sidechain": false}

> <source_group>
BACE1-401 observed AD isoform

> <source_system>
BACE1_verubecestat_401

> <source_run>
alternate_401_seed5519_ex32

> <source_seed>
5519

> <vina_pose_rank>
15

> <vina_affinity_kcal_mol>
-7.492

> <vina_rmsd_to_crystal_angstrom>
6.3033999999999999

> <minimizedAffinity>
-7.89309

> <CNNscore>
0.3491045833

> <CNNaffinity>
5.1644830704

> <CNN_VS>
1.8029446602

> <CNNaffinity_variance>
0.3656902313

$$$$
BACE1_verubecestat_401__alternate_401_seed5519_ex32__pose16


 31 33  0  0  0  0  0  0  0  0999 V2000
   18.6950    7.1050   23.8210 C   0  0  0  0  0  0  0  0  0  0  0  0
   18.5040    6.4980   22.5810 C   0  0  0  0  0  0  0  0  0  0  0  0
   17.4560    6.8280   21.7520 C   0  0  0  0  0  0  0  0  0  0  0  0
   16.5240    7.7820   22.1430 C   0  0  0  0  0  0  0  0  0  0  0  0
   16.7000    8.3980   23.3690 C   0  0  0  0  0  0  0  0  0  0  0  0
   17.7740    8.0790   24.1760 C   0  0  0  0  0  0  0  0  0  0  0  0
   17.9390    8.7190   25.3620 F   0  0  0  0  0  0  0  0  0  0  0  0
   22.8600    8.6410   22.2580 C   0  0  0  0  0  0  0  0  0  0  0  0
   21.9250    7.9740   23.1860 N   0  0  0  0  0  0  0  0  0  0  0  0
   21.7790    6.5710   23.2540 C   0  0  0  0  0  0  0  0  0  0  0  0
   22.6870    5.8800   22.4970 N   0  0  0  0  0  0  0  0  0  0  0  0
   20.8880    5.9730   23.9830 N   0  0  0  0  0  0  0  0  0  0  0  0
   19.8650    6.7200   24.7130 C   0  0  0  0  0  0  0  0  0  0  0  0
   19.3800    5.7090   25.7550 C   0  0  0  0  0  0  0  0  0  0  0  0
   20.4990    7.8670   25.4680 C   0  0  0  0  0  0  0  0  0  0  0  0
   21.2210    9.0350   24.3440 S   0  0  0  0  0  0  0  0  0  0  0  0
   22.3110    9.6770   25.0570 O   0  0  0  0  0  0  0  0  0  0  0  0
   20.2230    9.7390   23.6010 O   0  0  0  0  0  0  0  0  0  0  0  0
   22.6660    4.8960   22.4800 H   0  0  0  0  0  0  0  0  0  0  0  0
   23.3610    6.3670   21.9700 H   0  0  0  0  0  0  0  0  0  0  0  0
   17.3780    6.1410   20.5340 N   0  0  0  0  0  0  0  0  0  0  0  0
   16.7380    4.9440   20.2640 C   0  0  0  0  0  0  0  0  0  0  0  0
   16.2300    4.2130   21.1040 O   0  0  0  0  0  0  0  0  0  0  0  0
   17.8380    6.5630   19.7720 H   0  0  0  0  0  0  0  0  0  0  0  0
   16.6550    4.5790   18.8290 C   0  0  0  0  0  0  0  0  0  0  0  0
   15.4950    4.8340   18.1180 C   0  0  0  0  0  0  0  0  0  0  0  0
   15.4720    4.4710   16.7820 C   0  0  0  0  0  0  0  0  0  0  0  0
   16.5830    3.8820   16.2100 C   0  0  0  0  0  0  0  0  0  0  0  0
   16.6040    3.5050   14.9200 F   0  0  0  0  0  0  0  0  0  0  0  0
   17.6880    3.6650   17.0020 C   0  0  0  0  0  0  0  0  0  0  0  0
   17.7380    4.0010   18.3010 N   0  0  0  0  0  0  0  0  0  0  0  0
  8  9  1  0
  9 10  1  0
 10 11  1  0
 10 12  2  0
 12 13  1  0
 13 14  1  0
 13  1  1  0
  1  2  2  0
  2  3  1  0
  3 21  1  0
 21 22  1  0
 22 23  2  0
 22 25  1  0
 25 26  2  0
 26 27  1  0
 27 28  2  0
 28 29  1  0
 28 30  1  0
 30 31  2  0
  3  4  2  0
  4  5  1  0
  5  6  2  0
  6  7  1  0
 13 15  1  0
 15 16  1  0
 16 17  2  0
 16 18  2  0
 16  9  1  0
  6  1  1  0
 31 25  1  0
 11 19  1  0
 11 20  1  0
 21 24  1  0
M  END
> <meeko>
{"is_sidechain": false}

> <source_group>
BACE1-401 observed AD isoform

> <source_system>
BACE1_verubecestat_401

> <source_run>
alternate_401_seed5519_ex32

> <source_seed>
5519

> <vina_pose_rank>
16

> <vina_affinity_kcal_mol>
-7.4859999999999998

> <vina_rmsd_to_crystal_angstrom>
9.9242000000000008

> <minimizedAffinity>
-7.77601

> <CNNscore>
0.1388367414

> <CNNaffinity>
5.2062134743

> <CNN_VS>
0.7228137255

> <CNNaffinity_variance>
0.3529639542

$$$$
BACE1_verubecestat_401__alternate_401_seed5519_ex32__pose17


 31 33  0  0  0  0  0  0  0  0999 V2000
   25.4430   12.3450   19.3350 C   0  0  0  0  0  0  0  0  0  0  0  0
   26.0740   11.1630   18.9500 C   0  0  0  0  0  0  0  0  0  0  0  0
   25.3900    9.9780   18.8010 C   0  0  0  0  0  0  0  0  0  0  0  0
   24.0260    9.9160   19.0550 C   0  0  0  0  0  0  0  0  0  0  0  0
   23.3820   11.0810   19.4340 C   0  0  0  0  0  0  0  0  0  0  0  0
   24.0750   12.2690   19.5490 C   0  0  0  0  0  0  0  0  0  0  0  0
   23.4150   13.4040   19.8950 F   0  0  0  0  0  0  0  0  0  0  0  0
   26.8060   13.2270   23.7520 C   0  0  0  0  0  0  0  0  0  0  0  0
   26.6930   13.4600   22.2990 N   0  0  0  0  0  0  0  0  0  0  0  0
   25.8010   14.4000   21.7370 C   0  0  0  0  0  0  0  0  0  0  0  0
   25.1610   15.1810   22.6610 N   0  0  0  0  0  0  0  0  0  0  0  0
   25.6110   14.5410   20.4610 N   0  0  0  0  0  0  0  0  0  0  0  0
   26.2260   13.6390   19.4880 C   0  0  0  0  0  0  0  0  0  0  0  0
   26.1340   14.4310   18.1810 C   0  0  0  0  0  0  0  0  0  0  0  0
   27.6960   13.4660   19.7990 C   0  0  0  0  0  0  0  0  0  0  0  0
   27.9160   12.6770   21.3740 S   0  0  0  0  0  0  0  0  0  0  0  0
   29.1970   13.1260   21.8870 O   0  0  0  0  0  0  0  0  0  0  0  0
   27.4970   11.3100   21.3420 O   0  0  0  0  0  0  0  0  0  0  0  0
   24.5190   15.8660   22.3670 H   0  0  0  0  0  0  0  0  0  0  0  0
   25.3440   15.0580   23.6210 H   0  0  0  0  0  0  0  0  0  0  0  0
   26.1440    8.8630   18.4120 N   0  0  0  0  0  0  0  0  0  0  0  0
   26.6440    7.8470   19.2070 C   0  0  0  0  0  0  0  0  0  0  0  0
   26.6130    7.8300   20.4310 O   0  0  0  0  0  0  0  0  0  0  0  0
   26.3430    8.7930   17.4500 H   0  0  0  0  0  0  0  0  0  0  0  0
   27.2220    6.6950   18.4740 C   0  0  0  0  0  0  0  0  0  0  0  0
   26.6660    6.2920   17.2720 C   0  0  0  0  0  0  0  0  0  0  0  0
   27.2440    5.2100   16.6310 C   0  0  0  0  0  0  0  0  0  0  0  0
   28.3370    4.5790   17.1950 C   0  0  0  0  0  0  0  0  0  0  0  0
   28.9250    3.5200   16.6140 F   0  0  0  0  0  0  0  0  0  0  0  0
   28.8140    5.0500   18.3970 C   0  0  0  0  0  0  0  0  0  0  0  0
   28.2710    6.0940   19.0450 N   0  0  0  0  0  0  0  0  0  0  0  0
  8  9  1  0
  9 10  1  0
 10 11  1  0
 10 12  2  0
 12 13  1  0
 13 14  1  0
 13  1  1  0
  1  2  2  0
  2  3  1  0
  3 21  1  0
 21 22  1  0
 22 23  2  0
 22 25  1  0
 25 26  2  0
 26 27  1  0
 27 28  2  0
 28 29  1  0
 28 30  1  0
 30 31  2  0
  3  4  2  0
  4  5  1  0
  5  6  2  0
  6  7  1  0
 13 15  1  0
 15 16  1  0
 16 17  2  0
 16 18  2  0
 16  9  1  0
  6  1  1  0
 31 25  1  0
 11 19  1  0
 11 20  1  0
 21 24  1  0
M  END
> <meeko>
{"is_sidechain": false}

> <source_group>
BACE1-401 observed AD isoform

> <source_system>
BACE1_verubecestat_401

> <source_run>
alternate_401_seed5519_ex32

> <source_seed>
5519

> <vina_pose_rank>
17

> <vina_affinity_kcal_mol>
-7.4790000000000001

> <vina_rmsd_to_crystal_angstrom>
5.6787000000000001

> <minimizedAffinity>
-8.05740

> <CNNscore>
0.2947268188

> <CNNaffinity>
5.4282360077

> <CNN_VS>
1.5998467207

> <CNNaffinity_variance>
0.1093014479

$$$$
BACE1_verubecestat_401__alternate_401_seed5519_ex32__pose18


 31 33  0  0  0  0  0  0  0  0999 V2000
   21.2890   12.4410   26.4160 C   0  0  0  0  0  0  0  0  0  0  0  0
   21.6420   12.1960   25.0890 C   0  0  0  0  0  0  0  0  0  0  0  0
   22.8060   12.6790   24.5360 C   0  0  0  0  0  0  0  0  0  0  0  0
   23.6730   13.4590   25.2910 C   0  0  0  0  0  0  0  0  0  0  0  0
   23.3410   13.7090   26.6110 C   0  0  0  0  0  0  0  0  0  0  0  0
   22.1850   13.1910   27.1610 C   0  0  0  0  0  0  0  0  0  0  0  0
   21.8970   13.4270   28.4670 F   0  0  0  0  0  0  0  0  0  0  0  0
   17.7730   15.5670   26.5270 C   0  0  0  0  0  0  0  0  0  0  0  0
   18.4230   14.2540   26.7120 N   0  0  0  0  0  0  0  0  0  0  0  0
   18.8590   13.7810   27.9700 C   0  0  0  0  0  0  0  0  0  0  0  0
   18.4900   14.5770   29.0210 N   0  0  0  0  0  0  0  0  0  0  0  0
   19.5270   12.6820   28.1350 N   0  0  0  0  0  0  0  0  0  0  0  0
   19.9970   11.8900   26.9990 C   0  0  0  0  0  0  0  0  0  0  0  0
   20.2810   10.5230   27.6280 C   0  0  0  0  0  0  0  0  0  0  0  0
   18.8760   11.6960   26.0030 C   0  0  0  0  0  0  0  0  0  0  0  0
   18.3720   13.2520   25.3130 S   0  0  0  0  0  0  0  0  0  0  0  0
   16.9770   13.1070   24.9390 O   0  0  0  0  0  0  0  0  0  0  0  0
   19.3800   13.8020   24.4620 O   0  0  0  0  0  0  0  0  0  0  0  0
   18.7470   14.3310   29.9390 H   0  0  0  0  0  0  0  0  0  0  0  0
   17.9670   15.3960   28.8590 H   0  0  0  0  0  0  0  0  0  0  0  0
   23.0400   12.3630   23.1910 N   0  0  0  0  0  0  0  0  0  0  0  0
   23.3640   13.2190   22.1540 C   0  0  0  0  0  0  0  0  0  0  0  0
   23.3730   14.4410   22.2250 O   0  0  0  0  0  0  0  0  0  0  0  0
   22.9650   11.4100   22.9550 H   0  0  0  0  0  0  0  0  0  0  0  0
   23.7580   12.5570   20.8860 C   0  0  0  0  0  0  0  0  0  0  0  0
   23.4230   11.2320   20.6660 C   0  0  0  0  0  0  0  0  0  0  0  0
   23.8180   10.6650   19.4670 C   0  0  0  0  0  0  0  0  0  0  0  0
   24.5150   11.4200   18.5440 C   0  0  0  0  0  0  0  0  0  0  0  0
   24.9260   10.9100   17.3710 F   0  0  0  0  0  0  0  0  0  0  0  0
   24.8060   12.7290   18.8570 C   0  0  0  0  0  0  0  0  0  0  0  0
   24.4420   13.3050   20.0150 N   0  0  0  0  0  0  0  0  0  0  0  0
  8  9  1  0
  9 10  1  0
 10 11  1  0
 10 12  2  0
 12 13  1  0
 13 14  1  0
 13  1  1  0
  1  2  2  0
  2  3  1  0
  3 21  1  0
 21 22  1  0
 22 23  2  0
 22 25  1  0
 25 26  2  0
 26 27  1  0
 27 28  2  0
 28 29  1  0
 28 30  1  0
 30 31  2  0
  3  4  2  0
  4  5  1  0
  5  6  2  0
  6  7  1  0
 13 15  1  0
 15 16  1  0
 16 17  2  0
 16 18  2  0
 16  9  1  0
  6  1  1  0
 31 25  1  0
 11 19  1  0
 11 20  1  0
 21 24  1  0
M  END
> <meeko>
{"is_sidechain": false}

> <source_group>
BACE1-401 observed AD isoform

> <source_system>
BACE1_verubecestat_401

> <source_run>
alternate_401_seed5519_ex32

> <source_seed>
5519

> <vina_pose_rank>
18

> <vina_affinity_kcal_mol>
-7.4400000000000004

> <vina_rmsd_to_crystal_angstrom>
6.5971000000000002

> <minimizedAffinity>
-8.15080

> <CNNscore>
0.5801104307

> <CNNaffinity>
5.4212870598

> <CNN_VS>
3.1449451447

> <CNNaffinity_variance>
0.3518289030

$$$$
BACE1_verubecestat_401__alternate_401_seed5519_ex32__pose19


 31 33  0  0  0  0  0  0  0  0999 V2000
   15.3160    4.6440   20.4520 C   0  0  0  0  0  0  0  0  0  0  0  0
   16.1920    4.4370   21.5170 C   0  0  0  0  0  0  0  0  0  0  0  0
   16.6360    5.4670   22.3150 C   0  0  0  0  0  0  0  0  0  0  0  0
   16.2360    6.7740   22.0650 C   0  0  0  0  0  0  0  0  0  0  0  0
   15.3640    6.9970   21.0140 C   0  0  0  0  0  0  0  0  0  0  0  0
   14.9010    5.9500   20.2420 C   0  0  0  0  0  0  0  0  0  0  0  0
   14.0230    6.1920   19.2350 F   0  0  0  0  0  0  0  0  0  0  0  0
   16.9410    4.7650   16.0370 C   0  0  0  0  0  0  0  0  0  0  0  0
   16.2040    4.2180   17.1930 N   0  0  0  0  0  0  0  0  0  0  0  0
   14.8010    4.3200   17.3300 C   0  0  0  0  0  0  0  0  0  0  0  0
   14.1720    4.8350   16.2280 N   0  0  0  0  0  0  0  0  0  0  0  0
   14.1500    3.9430   18.3860 N   0  0  0  0  0  0  0  0  0  0  0  0
   14.8400    3.4840   19.5910 C   0  0  0  0  0  0  0  0  0  0  0  0
   13.7450    2.7250   20.3450 C   0  0  0  0  0  0  0  0  0  0  0  0
   15.9070    2.4760   19.2260 C   0  0  0  0  0  0  0  0  0  0  0  0
   17.1640    3.2290   18.2240 S   0  0  0  0  0  0  0  0  0  0  0  0
   17.7270    2.1720   17.4040 O   0  0  0  0  0  0  0  0  0  0  0  0
   17.9420    4.1680   18.9710 O   0  0  0  0  0  0  0  0  0  0  0  0
   13.1930    4.9450   16.2270 H   0  0  0  0  0  0  0  0  0  0  0  0
   14.6970    5.0940   15.4370 H   0  0  0  0  0  0  0  0  0  0  0  0
   17.5160    5.1240   23.3500 N   0  0  0  0  0  0  0  0  0  0  0  0
   18.8980    5.2030   23.3620 C   0  0  0  0  0  0  0  0  0  0  0  0
   19.5960    5.4730   22.3930 O   0  0  0  0  0  0  0  0  0  0  0  0
   17.0980    4.7850   24.1740 H   0  0  0  0  0  0  0  0  0  0  0  0
   19.5340    4.9670   24.6800 C   0  0  0  0  0  0  0  0  0  0  0  0
   19.3640    5.8840   25.7030 C   0  0  0  0  0  0  0  0  0  0  0  0
   19.9820    5.6150   26.9120 C   0  0  0  0  0  0  0  0  0  0  0  0
   20.7300    4.4630   27.0610 C   0  0  0  0  0  0  0  0  0  0  0  0
   21.3560    4.1650   28.2120 F   0  0  0  0  0  0  0  0  0  0  0  0
   20.8460    3.6150   25.9830 C   0  0  0  0  0  0  0  0  0  0  0  0
   20.2630    3.8520   24.7960 N   0  0  0  0  0  0  0  0  0  0  0  0
  8  9  1  0
  9 10  1  0
 10 11  1  0
 10 12  2  0
 12 13  1  0
 13 14  1  0
 13  1  1  0
  1  2  2  0
  2  3  1  0
  3 21  1  0
 21 22  1  0
 22 23  2  0
 22 25  1  0
 25 26  2  0
 26 27  1  0
 27 28  2  0
 28 29  1  0
 28 30  1  0
 30 31  2  0
  3  4  2  0
  4  5  1  0
  5  6  2  0
  6  7  1  0
 13 15  1  0
 15 16  1  0
 16 17  2  0
 16 18  2  0
 16  9  1  0
  6  1  1  0
 31 25  1  0
 11 19  1  0
 11 20  1  0
 21 24  1  0
M  END
> <meeko>
{"is_sidechain": false}

> <source_group>
BACE1-401 observed AD isoform

> <source_system>
BACE1_verubecestat_401

> <source_run>
alternate_401_seed5519_ex32

> <source_seed>
5519

> <vina_pose_rank>
19

> <vina_affinity_kcal_mol>
-7.4279999999999999

> <vina_rmsd_to_crystal_angstrom>
10.852499999999999

> <minimizedAffinity>
-9.57358

> <CNNscore>
0.1301560104

> <CNNaffinity>
5.3885345459

> <CNN_VS>
0.7013501525

> <CNNaffinity_variance>
0.3878271878

$$$$
BACE1_verubecestat_401__alternate_401_seed5519_ex32__pose20


 31 33  0  0  0  0  0  0  0  0999 V2000
   18.8290    8.8390   24.2570 C   0  0  0  0  0  0  0  0  0  0  0  0
   17.9920    7.9270   23.6160 C   0  0  0  0  0  0  0  0  0  0  0  0
   16.9140    8.3250   22.8570 C   0  0  0  0  0  0  0  0  0  0  0  0
   16.6080    9.6730   22.7220 C   0  0  0  0  0  0  0  0  0  0  0  0
   17.4300   10.5920   23.3490 C   0  0  0  0  0  0  0  0  0  0  0  0
   18.5270   10.1800   24.0810 C   0  0  0  0  0  0  0  0  0  0  0  0
   19.3350   11.1040   24.6620 F   0  0  0  0  0  0  0  0  0  0  0  0
   21.0020    5.0580   22.4880 C   0  0  0  0  0  0  0  0  0  0  0  0
   20.7760    6.1700   23.4320 N   0  0  0  0  0  0  0  0  0  0  0  0
   20.1810    5.9940   24.7010 C   0  0  0  0  0  0  0  0  0  0  0  0
   19.9740    4.6840   25.0400 N   0  0  0  0  0  0  0  0  0  0  0  0
   19.8760    6.9720   25.4970 N   0  0  0  0  0  0  0  0  0  0  0  0
   20.0140    8.3680   25.0860 C   0  0  0  0  0  0  0  0  0  0  0  0
   20.0130    9.1200   26.4200 C   0  0  0  0  0  0  0  0  0  0  0  0
   21.3690    8.5910   24.4520 C   0  0  0  0  0  0  0  0  0  0  0  0
   21.5250    7.6460   22.9580 S   0  0  0  0  0  0  0  0  0  0  0  0
   22.9410    7.3730   22.7870 O   0  0  0  0  0  0  0  0  0  0  0  0
   20.6730    8.1460   21.9250 O   0  0  0  0  0  0  0  0  0  0  0  0
   19.5640    4.4590   25.9070 H   0  0  0  0  0  0  0  0  0  0  0  0
   20.2350    3.9670   24.4180 H   0  0  0  0  0  0  0  0  0  0  0  0
   16.1520    7.3080   22.2680 N   0  0  0  0  0  0  0  0  0  0  0  0
   16.2930    6.7500   21.0090 C   0  0  0  0  0  0  0  0  0  0  0  0
   17.0510    7.1590   20.1390 O   0  0  0  0  0  0  0  0  0  0  0  0
   15.4230    6.9430   22.8200 H   0  0  0  0  0  0  0  0  0  0  0  0
   15.4680    5.5450   20.7550 C   0  0  0  0  0  0  0  0  0  0  0  0
   14.6520    5.4890   19.6380 C   0  0  0  0  0  0  0  0  0  0  0  0
   13.9020    4.3420   19.4510 C   0  0  0  0  0  0  0  0  0  0  0  0
   13.9900    3.3060   20.3610 C   0  0  0  0  0  0  0  0  0  0  0  0
   13.2740    2.1760   20.2250 F   0  0  0  0  0  0  0  0  0  0  0  0
   14.8260    3.4570   21.4440 C   0  0  0  0  0  0  0  0  0  0  0  0
   15.5610    4.5610   21.6550 N   0  0  0  0  0  0  0  0  0  0  0  0
  8  9  1  0
  9 10  1  0
 10 11  1  0
 10 12  2  0
 12 13  1  0
 13 14  1  0
 13  1  1  0
  1  2  2  0
  2  3  1  0
  3 21  1  0
 21 22  1  0
 22 23  2  0
 22 25  1  0
 25 26  2  0
 26 27  1  0
 27 28  2  0
 28 29  1  0
 28 30  1  0
 30 31  2  0
  3  4  2  0
  4  5  1  0
  5  6  2  0
  6  7  1  0
 13 15  1  0
 15 16  1  0
 16 17  2  0
 16 18  2  0
 16  9  1  0
  6  1  1  0
 31 25  1  0
 11 19  1  0
 11 20  1  0
 21 24  1  0
M  END
> <meeko>
{"is_sidechain": false}

> <source_group>
BACE1-401 observed AD isoform

> <source_system>
BACE1_verubecestat_401

> <source_run>
alternate_401_seed5519_ex32

> <source_seed>
5519

> <vina_pose_rank>
20

> <vina_affinity_kcal_mol>
-7.375

> <vina_rmsd_to_crystal_angstrom>
10.3331

> <minimizedAffinity>
-7.75647

> <CNNscore>
0.1246139705

> <CNNaffinity>
5.0790858269

> <CNN_VS>
0.6329250336

> <CNNaffinity_variance>
0.3165280223

$$$$
