BACE1_verubecestat__alternate_457_seed2207_ex32__pose01
     RDKit          3D

 45 47  0  0  0  0  0  0  0  0999 V2000
   27.8400   12.7140   23.6370 C   0  0  0  0  0  0  0  0  0  0  0  0
   26.9570   13.1960   22.5570 N   0  0  0  0  0  0  0  0  0  0  0  0
   26.0610   14.2770   22.7200 C   0  0  0  0  0  0  0  0  0  0  0  0
   26.1920   14.9320   23.9150 N   0  0  0  0  0  0  0  0  0  0  0  0
   25.2020   14.6440   21.8190 N   0  0  0  0  0  0  0  0  0  0  0  0
   25.0060   13.8800   20.5880 C   0  0  2  0  0  0  0  0  0  0  0  0
   24.3090   14.8860   19.6680 C   0  0  0  0  0  0  0  0  0  0  0  0
   24.0860   12.6870   20.7980 C   0  0  0  0  0  0  0  0  0  0  0  0
   23.5510   12.4020   22.0530 C   0  0  0  0  0  0  0  0  0  0  0  0
   22.7190   11.3280   22.2720 C   0  0  0  0  0  0  0  0  0  0  0  0
   22.2480   11.1550   23.5810 N   0  0  0  0  0  0  0  0  0  0  0  0
   22.9410   11.3110   24.7680 C   0  0  0  0  0  0  0  0  0  0  0  0
   24.1460   11.5070   24.8610 O   0  0  0  0  0  0  0  0  0  0  0  0
   22.1100   11.2630   25.9960 C   0  0  0  0  0  0  0  0  0  0  0  0
   20.8950   10.6010   25.9840 C   0  0  0  0  0  0  0  0  0  0  0  0
   20.1610   10.5900   27.1560 C   0  0  0  0  0  0  0  0  0  0  0  0
   20.6520   11.2230   28.2820 C   0  0  0  0  0  0  0  0  0  0  0  0
   19.9710   11.2460   29.4400 F   0  0  0  0  0  0  0  0  0  0  0  0
   21.8690   11.8600   28.1940 C   0  0  0  0  0  0  0  0  0  0  0  0
   22.6020   11.8930   27.0690 N   0  0  0  0  0  0  0  0  0  0  0  0
   22.3610   10.4900   21.2240 C   0  0  0  0  0  0  0  0  0  0  0  0
   22.8850   10.7560   19.9710 C   0  0  0  0  0  0  0  0  0  0  0  0
   23.7440   11.8190   19.7730 C   0  0  0  0  0  0  0  0  0  0  0  0
   24.2680   12.0400   18.5400 F   0  0  0  0  0  0  0  0  0  0  0  0
   26.3420   13.5560   19.9590 C   0  0  0  0  0  0  0  0  0  0  0  0
   27.2950   12.4990   21.0200 S   0  0  0  0  0  0  0  0  0  0  0  0
   28.6910   12.7660   20.7250 O   0  0  0  0  0  0  0  0  0  0  0  0
   26.7280   11.1890   21.1060 O   0  0  0  0  0  0  0  0  0  0  0  0
   27.3933   12.9579   24.6122 H   0  0  0  0  0  0  0  0  0  0  0  0
   27.9621   11.6241   23.5519 H   0  0  0  0  0  0  0  0  0  0  0  0
   28.8227   13.2008   23.5519 H   0  0  0  0  0  0  0  0  0  0  0  0
   25.6120   15.7000   24.1210 H   0  0  0  0  0  0  0  0  0  0  0  0
   26.8670   14.6360   24.5670 H   0  0  0  0  0  0  0  0  0  0  0  0
   23.7872   15.6391   20.2767 H   0  0  0  0  0  0  0  0  0  0  0  0
   25.0578   15.3823   19.0332 H   0  0  0  0  0  0  0  0  0  0  0  0
   23.5813   14.3593   19.0332 H   0  0  0  0  0  0  0  0  0  0  0  0
   23.8028   13.0590   22.8986 H   0  0  0  0  0  0  0  0  0  0  0  0
   21.3040   10.8900   23.6650 H   0  0  0  0  0  0  0  0  0  0  0  0
   20.5265   10.1019   25.0757 H   0  0  0  0  0  0  0  0  0  0  0  0
   19.1880   10.0782   27.1919 H   0  0  0  0  0  0  0  0  0  0  0  0
   22.2603   12.3667   29.0885 H   0  0  0  0  0  0  0  0  0  0  0  0
   21.6813    9.6403   21.3850 H   0  0  0  0  0  0  0  0  0  0  0  0
   22.6136   10.1121   19.1215 H   0  0  0  0  0  0  0  0  0  0  0  0
   26.1749   13.0473   18.9981 H   0  0  0  0  0  0  0  0  0  0  0  0
   26.8962   14.4933   19.8032 H   0  0  0  0  0  0  0  0  0  0  0  0
  1  2  1  0
  2  3  1  0
  3  4  1  0
  3  5  2  0
  5  6  1  0
  6  7  1  6
  6  8  1  0
  8  9  2  0
  9 10  1  0
 10 11  1  0
 11 12  1  0
 12 13  2  0
 12 14  1  0
 14 15  2  0
 15 16  1  0
 16 17  2  0
 17 18  1  0
 17 19  1  0
 19 20  2  0
 10 21  2  0
 21 22  1  0
 22 23  2  0
 23 24  1  0
  6 25  1  0
 25 26  1  0
 26 27  2  0
 26 28  2  0
 26  2  1  0
 23  8  1  0
 20 14  1  0
  1 29  1  0
  1 30  1  0
  1 31  1  0
  4 32  1  0
  4 33  1  0
  7 34  1  0
  7 35  1  0
  7 36  1  0
  9 37  1  0
 11 38  1  0
 15 39  1  0
 16 40  1  0
 19 41  1  0
 21 42  1  0
 22 43  1  0
 25 44  1  0
 25 45  1  0
M  END
>  <meeko>  (1)
{"is_sidechain": false}

>  <source_group>  (1)
BACE1-457

>  <source_system>  (1)
BACE1_verubecestat

>  <source_run>  (1)
alternate_457_seed2207_ex32

>  <source_seed>  (1)
2207

>  <vina_pose_rank>  (1)
1

>  <vina_affinity_kcal_mol>  (1)
-8.2650000000000006

>  <vina_rmsd_to_crystal_angstrom>  (1)
7.0266999999999999

$$$$
BACE1_verubecestat__alternate_457_seed2207_ex32__pose02
     RDKit          3D

 45 47  0  0  0  0  0  0  0  0999 V2000
   28.2830    9.6460   21.0030 C   0  0  0  0  0  0  0  0  0  0  0  0
   27.9300   11.0700   20.8360 N   0  0  0  0  0  0  0  0  0  0  0  0
   27.9850   12.0060   21.8920 C   0  0  0  0  0  0  0  0  0  0  0  0
   28.5370   11.5120   23.0440 N   0  0  0  0  0  0  0  0  0  0  0  0
   27.5760   13.2330   21.7910 N   0  0  0  0  0  0  0  0  0  0  0  0
   26.9020   13.7210   20.5890 C   0  0  2  0  0  0  0  0  0  0  0  0
   27.0390   15.2410   20.7130 C   0  0  0  0  0  0  0  0  0  0  0  0
   25.4250   13.3610   20.5770 C   0  0  0  0  0  0  0  0  0  0  0  0
   24.8120   12.7980   21.6950 C   0  0  0  0  0  0  0  0  0  0  0  0
   23.4780   12.4590   21.7110 C   0  0  0  0  0  0  0  0  0  0  0  0
   22.9850   11.9040   22.9000 N   0  0  0  0  0  0  0  0  0  0  0  0
   22.5080   12.5620   24.0190 C   0  0  0  0  0  0  0  0  0  0  0  0
   22.5610   13.7710   24.2020 O   0  0  0  0  0  0  0  0  0  0  0  0
   21.8590   11.6960   25.0340 C   0  0  0  0  0  0  0  0  0  0  0  0
   21.9630   10.3190   24.9350 C   0  0  0  0  0  0  0  0  0  0  0  0
   21.3360    9.5590   25.9070 C   0  0  0  0  0  0  0  0  0  0  0  0
   20.6440   10.1830   26.9280 C   0  0  0  0  0  0  0  0  0  0  0  0
   20.0130    9.4870   27.8880 F   0  0  0  0  0  0  0  0  0  0  0  0
   20.5930   11.5580   26.9370 C   0  0  0  0  0  0  0  0  0  0  0  0
   21.1860   12.3220   26.0050 N   0  0  0  0  0  0  0  0  0  0  0  0
   22.6790   12.6930   20.5990 C   0  0  0  0  0  0  0  0  0  0  0  0
   23.2720   13.2470   19.4780 C   0  0  0  0  0  0  0  0  0  0  0  0
   24.6190   13.5520   19.4650 C   0  0  0  0  0  0  0  0  0  0  0  0
   25.1820   14.0690   18.3430 F   0  0  0  0  0  0  0  0  0  0  0  0
   27.6730   13.3060   19.3560 C   0  0  0  0  0  0  0  0  0  0  0  0
   27.6950   11.5380   19.1960 S   0  0  0  0  0  0  0  0  0  0  0  0
   28.9090   11.2030   18.4750 O   0  0  0  0  0  0  0  0  0  0  0  0
   26.4010   11.0220   18.8750 O   0  0  0  0  0  0  0  0  0  0  0  0
   28.3424    9.4062   22.0749 H   0  0  0  0  0  0  0  0  0  0  0  0
   27.5130    9.0194   20.5293 H   0  0  0  0  0  0  0  0  0  0  0  0
   29.2565    9.4516   20.5293 H   0  0  0  0  0  0  0  0  0  0  0  0
   28.6190   12.0900   23.8370 H   0  0  0  0  0  0  0  0  0  0  0  0
   28.8530   10.5800   23.0790 H   0  0  0  0  0  0  0  0  0  0  0  0
   27.0643   15.5213   21.7764 H   0  0  0  0  0  0  0  0  0  0  0  0
   27.9701   15.5662   20.2259 H   0  0  0  0  0  0  0  0  0  0  0  0
   26.1811   15.7274   20.2259 H   0  0  0  0  0  0  0  0  0  0  0  0
   25.4158   12.6182   22.5967 H   0  0  0  0  0  0  0  0  0  0  0  0
   22.9780   10.9210   22.9430 H   0  0  0  0  0  0  0  0  0  0  0  0
   22.5230    9.8466   24.1145 H   0  0  0  0  0  0  0  0  0  0  0  0
   21.3882    8.4610   25.8671 H   0  0  0  0  0  0  0  0  0  0  0  0
   20.0396   12.0558   27.7469 H   0  0  0  0  0  0  0  0  0  0  0  0
   21.6073   12.4454   20.6092 H   0  0  0  0  0  0  0  0  0  0  0  0
   22.6620   13.4472   18.5848 H   0  0  0  0  0  0  0  0  0  0  0  0
   27.1950   13.7432   18.4670 H   0  0  0  0  0  0  0  0  0  0  0  0
   28.7084   13.6659   19.4482 H   0  0  0  0  0  0  0  0  0  0  0  0
  1  2  1  0
  2  3  1  0
  3  4  1  0
  3  5  2  0
  5  6  1  0
  6  7  1  1
  6  8  1  0
  8  9  2  0
  9 10  1  0
 10 11  1  0
 11 12  1  0
 12 13  2  0
 12 14  1  0
 14 15  2  0
 15 16  1  0
 16 17  2  0
 17 18  1  0
 17 19  1  0
 19 20  2  0
 10 21  2  0
 21 22  1  0
 22 23  2  0
 23 24  1  0
  6 25  1  0
 25 26  1  0
 26 27  2  0
 26 28  2  0
 26  2  1  0
 23  8  1  0
 20 14  1  0
  1 29  1  0
  1 30  1  0
  1 31  1  0
  4 32  1  0
  4 33  1  0
  7 34  1  0
  7 35  1  0
  7 36  1  0
  9 37  1  0
 11 38  1  0
 15 39  1  0
 16 40  1  0
 19 41  1  0
 21 42  1  0
 22 43  1  0
 25 44  1  0
 25 45  1  0
M  END
>  <meeko>  (2)
{"is_sidechain": false}

>  <source_group>  (2)
BACE1-457

>  <source_system>  (2)
BACE1_verubecestat

>  <source_run>  (2)
alternate_457_seed2207_ex32

>  <source_seed>  (2)
2207

>  <vina_pose_rank>  (2)
2

>  <vina_affinity_kcal_mol>  (2)
-7.9809999999999999

>  <vina_rmsd_to_crystal_angstrom>  (2)
7.3181000000000003

$$$$
BACE1_verubecestat__alternate_457_seed2207_ex32__pose03
     RDKit          3D

 45 47  0  0  0  0  0  0  0  0999 V2000
   22.7460    4.8710   19.2200 C   0  0  0  0  0  0  0  0  0  0  0  0
   22.1340    5.8840   18.3370 N   0  0  0  0  0  0  0  0  0  0  0  0
   21.9900    5.7040   16.9430 C   0  0  0  0  0  0  0  0  0  0  0  0
   22.3260    4.4510   16.5070 N   0  0  0  0  0  0  0  0  0  0  0  0
   21.5560    6.6240   16.1380 N   0  0  0  0  0  0  0  0  0  0  0  0
   21.2910    7.9860   16.5990 C   0  0  2  0  0  0  0  0  0  0  0  0
   20.3870    8.5510   15.5000 C   0  0  0  0  0  0  0  0  0  0  0  0
   22.5600    8.8220   16.6690 C   0  0  0  0  0  0  0  0  0  0  0  0
   23.7850    8.3090   16.2450 C   0  0  0  0  0  0  0  0  0  0  0  0
   24.9490    9.0410   16.2990 C   0  0  0  0  0  0  0  0  0  0  0  0
   26.1110    8.4090   15.8390 N   0  0  0  0  0  0  0  0  0  0  0  0
   27.3120    8.2330   16.5030 C   0  0  0  0  0  0  0  0  0  0  0  0
   27.5980    8.7310   17.5840 O   0  0  0  0  0  0  0  0  0  0  0  0
   28.2830    7.3370   15.8290 C   0  0  0  0  0  0  0  0  0  0  0  0
   27.9120    6.0470   15.4900 C   0  0  0  0  0  0  0  0  0  0  0  0
   28.8580    5.2540   14.8660 C   0  0  0  0  0  0  0  0  0  0  0  0
   30.1160    5.7610   14.6020 C   0  0  0  0  0  0  0  0  0  0  0  0
   31.0690    5.0250   14.0060 F   0  0  0  0  0  0  0  0  0  0  0  0
   30.3920    7.0540   14.9830 C   0  0  0  0  0  0  0  0  0  0  0  0
   29.4960    7.8460   15.5950 N   0  0  0  0  0  0  0  0  0  0  0  0
   24.9350   10.3490   16.7680 C   0  0  0  0  0  0  0  0  0  0  0  0
   23.7290   10.8740   17.1970 C   0  0  0  0  0  0  0  0  0  0  0  0
   22.5750   10.1160   17.1660 C   0  0  0  0  0  0  0  0  0  0  0  0
   21.4100   10.6450   17.6200 F   0  0  0  0  0  0  0  0  0  0  0  0
   20.4740    7.9540   17.8720 C   0  0  0  0  0  0  0  0  0  0  0  0
   21.3880    7.1840   19.1840 S   0  0  0  0  0  0  0  0  0  0  0  0
   20.4090    6.6030   20.0850 O   0  0  0  0  0  0  0  0  0  0  0  0
   22.4880    7.9930   19.6060 O   0  0  0  0  0  0  0  0  0  0  0  0
   22.5773    5.1503   20.2705 H   0  0  0  0  0  0  0  0  0  0  0  0
   22.2896    3.8896   19.0236 H   0  0  0  0  0  0  0  0  0  0  0  0
   23.8271    4.8185   19.0236 H   0  0  0  0  0  0  0  0  0  0  0  0
   22.2590    4.2280   15.5500 H   0  0  0  0  0  0  0  0  0  0  0  0
   22.6350    3.7720   17.1500 H   0  0  0  0  0  0  0  0  0  0  0  0
   19.5393    9.0808   15.9589 H   0  0  0  0  0  0  0  0  0  0  0  0
   20.9622    9.2507   14.8758 H   0  0  0  0  0  0  0  0  0  0  0  0
   20.0101    7.7274   14.8758 H   0  0  0  0  0  0  0  0  0  0  0  0
   23.8225    7.2819   15.8531 H   0  0  0  0  0  0  0  0  0  0  0  0
   26.0670    8.0410   14.9260 H   0  0  0  0  0  0  0  0  0  0  0  0
   26.9031    5.6671   15.7086 H   0  0  0  0  0  0  0  0  0  0  0  0
   28.6092    4.2213   14.5803 H   0  0  0  0  0  0  0  0  0  0  0  0
   31.3939    7.4584   14.7767 H   0  0  0  0  0  0  0  0  0  0  0  0
   25.8561   10.9496   16.7973 H   0  0  0  0  0  0  0  0  0  0  0  0
   23.6888   11.9089   17.5677 H   0  0  0  0  0  0  0  0  0  0  0  0
   20.2204    8.9837   18.1644 H   0  0  0  0  0  0  0  0  0  0  0  0
   19.5581    7.3726   17.6902 H   0  0  0  0  0  0  0  0  0  0  0  0
  1  2  1  0
  2  3  1  0
  3  4  1  0
  3  5  2  0
  5  6  1  0
  6  7  1  6
  6  8  1  0
  8  9  2  0
  9 10  1  0
 10 11  1  0
 11 12  1  0
 12 13  2  0
 12 14  1  0
 14 15  2  0
 15 16  1  0
 16 17  2  0
 17 18  1  0
 17 19  1  0
 19 20  2  0
 10 21  2  0
 21 22  1  0
 22 23  2  0
 23 24  1  0
  6 25  1  0
 25 26  1  0
 26 27  2  0
 26 28  2  0
 26  2  1  0
 23  8  1  0
 20 14  1  0
  1 29  1  0
  1 30  1  0
  1 31  1  0
  4 32  1  0
  4 33  1  0
  7 34  1  0
  7 35  1  0
  7 36  1  0
  9 37  1  0
 11 38  1  0
 15 39  1  0
 16 40  1  0
 19 41  1  0
 21 42  1  0
 22 43  1  0
 25 44  1  0
 25 45  1  0
M  END
>  <meeko>  (3)
{"is_sidechain": false}

>  <source_group>  (3)
BACE1-457

>  <source_system>  (3)
BACE1_verubecestat

>  <source_run>  (3)
alternate_457_seed2207_ex32

>  <source_seed>  (3)
2207

>  <vina_pose_rank>  (3)
3

>  <vina_affinity_kcal_mol>  (3)
-7.9690000000000003

>  <vina_rmsd_to_crystal_angstrom>  (3)
6.5111999999999997

$$$$
BACE1_verubecestat__alternate_457_seed2207_ex32__pose04
     RDKit          3D

 45 47  0  0  0  0  0  0  0  0999 V2000
   22.4600   12.4520   19.4790 C   0  0  0  0  0  0  0  0  0  0  0  0
   23.9050   12.3020   19.7450 N   0  0  0  0  0  0  0  0  0  0  0  0
   24.4950   11.0740   20.1170 C   0  0  0  0  0  0  0  0  0  0  0  0
   23.6400   10.0060   20.0620 N   0  0  0  0  0  0  0  0  0  0  0  0
   25.7400   10.9460   20.4590 N   0  0  0  0  0  0  0  0  0  0  0  0
   26.6190   12.1050   20.6070 C   0  0  2  0  0  0  0  0  0  0  0  0
   28.0180   11.4860   20.5380 C   0  0  0  0  0  0  0  0  0  0  0  0
   26.4480   12.7830   21.9570 C   0  0  0  0  0  0  0  0  0  0  0  0
   25.5140   12.3180   22.8830 C   0  0  0  0  0  0  0  0  0  0  0  0
   25.3360   12.9140   24.1110 C   0  0  0  0  0  0  0  0  0  0  0  0
   24.3670   12.3470   24.9490 N   0  0  0  0  0  0  0  0  0  0  0  0
   23.0250   12.6700   25.0490 C   0  0  0  0  0  0  0  0  0  0  0  0
   22.4860   13.6190   24.4950 O   0  0  0  0  0  0  0  0  0  0  0  0
   22.2110   11.7470   25.8760 C   0  0  0  0  0  0  0  0  0  0  0  0
   21.5720   10.6710   25.2850 C   0  0  0  0  0  0  0  0  0  0  0  0
   20.8250    9.8420   26.1030 C   0  0  0  0  0  0  0  0  0  0  0  0
   20.7420   10.1050   27.4570 C   0  0  0  0  0  0  0  0  0  0  0  0
   20.0210    9.3350   28.2890 F   0  0  0  0  0  0  0  0  0  0  0  0
   21.4090   11.2030   27.9510 C   0  0  0  0  0  0  0  0  0  0  0  0
   22.1370   12.0280   27.1810 N   0  0  0  0  0  0  0  0  0  0  0  0
   26.1110   14.0050   24.4830 C   0  0  0  0  0  0  0  0  0  0  0  0
   27.0410   14.4820   23.5760 C   0  0  0  0  0  0  0  0  0  0  0  0
   27.1860   13.8940   22.3340 C   0  0  0  0  0  0  0  0  0  0  0  0
   28.0850   14.4000   21.4510 F   0  0  0  0  0  0  0  0  0  0  0  0
   26.4790   13.0180   19.4090 C   0  0  0  0  0  0  0  0  0  0  0  0
   24.8370   13.6840   19.3170 S   0  0  0  0  0  0  0  0  0  0  0  0
   24.5790   13.9580   17.9140 O   0  0  0  0  0  0  0  0  0  0  0  0
   24.5820   14.6100   20.3760 O   0  0  0  0  0  0  0  0  0  0  0  0
   21.9155   12.5085   20.4331 H   0  0  0  0  0  0  0  0  0  0  0  0
   22.2869   13.3729   18.9029 H   0  0  0  0  0  0  0  0  0  0  0  0
   22.1014   11.5863   18.9029 H   0  0  0  0  0  0  0  0  0  0  0  0
   23.9590    9.1070   20.3030 H   0  0  0  0  0  0  0  0  0  0  0  0
   22.7050   10.1380   19.7800 H   0  0  0  0  0  0  0  0  0  0  0  0
   28.3957   11.3189   21.5575 H   0  0  0  0  0  0  0  0  0  0  0  0
   27.9682   10.5259   20.0035 H   0  0  0  0  0  0  0  0  0  0  0  0
   28.6950   12.1686   20.0035 H   0  0  0  0  0  0  0  0  0  0  0  0
   24.8982   11.4445   22.6228 H   0  0  0  0  0  0  0  0  0  0  0  0
   24.6800   11.6250   25.5410 H   0  0  0  0  0  0  0  0  0  0  0  0
   21.6550   10.4818   24.2046 H   0  0  0  0  0  0  0  0  0  0  0  0
   20.2984    8.9755   25.6764 H   0  0  0  0  0  0  0  0  0  0  0  0
   21.3426   11.4149   29.0283 H   0  0  0  0  0  0  0  0  0  0  0  0
   25.9891   14.4760   25.4696 H   0  0  0  0  0  0  0  0  0  0  0  0
   27.6730   15.3404   23.8473 H   0  0  0  0  0  0  0  0  0  0  0  0
   27.1994   13.8444   19.4986 H   0  0  0  0  0  0  0  0  0  0  0  0
   26.6767   12.4368   18.4962 H   0  0  0  0  0  0  0  0  0  0  0  0
  1  2  1  0
  2  3  1  0
  3  4  1  0
  3  5  2  0
  5  6  1  0
  6  7  1  1
  6  8  1  0
  8  9  2  0
  9 10  1  0
 10 11  1  0
 11 12  1  0
 12 13  2  0
 12 14  1  0
 14 15  2  0
 15 16  1  0
 16 17  2  0
 17 18  1  0
 17 19  1  0
 19 20  2  0
 10 21  2  0
 21 22  1  0
 22 23  2  0
 23 24  1  0
  6 25  1  0
 25 26  1  0
 26 27  2  0
 26 28  2  0
 26  2  1  0
 23  8  1  0
 20 14  1  0
  1 29  1  0
  1 30  1  0
  1 31  1  0
  4 32  1  0
  4 33  1  0
  7 34  1  0
  7 35  1  0
  7 36  1  0
  9 37  1  0
 11 38  1  0
 15 39  1  0
 16 40  1  0
 19 41  1  0
 21 42  1  0
 22 43  1  0
 25 44  1  0
 25 45  1  0
M  END
>  <meeko>  (4)
{"is_sidechain": false}

>  <source_group>  (4)
BACE1-457

>  <source_system>  (4)
BACE1_verubecestat

>  <source_run>  (4)
alternate_457_seed2207_ex32

>  <source_seed>  (4)
2207

>  <vina_pose_rank>  (4)
4

>  <vina_affinity_kcal_mol>  (4)
-7.9009999999999998

>  <vina_rmsd_to_crystal_angstrom>  (4)
7.1618000000000004

$$$$
BACE1_verubecestat__alternate_457_seed2207_ex32__pose05
     RDKit          3D

 45 47  0  0  0  0  0  0  0  0999 V2000
   28.2220    9.6730   20.1060 C   0  0  0  0  0  0  0  0  0  0  0  0
   28.6340   11.0030   20.5940 N   0  0  0  0  0  0  0  0  0  0  0  0
   29.1030   11.2300   21.9080 C   0  0  0  0  0  0  0  0  0  0  0  0
   29.2850   10.0860   22.6370 N   0  0  0  0  0  0  0  0  0  0  0  0
   29.3670   12.4060   22.3870 N   0  0  0  0  0  0  0  0  0  0  0  0
   29.0790   13.6250   21.6320 C   0  0  2  0  0  0  0  0  0  0  0  0
   29.9510   14.6740   22.3290 C   0  0  0  0  0  0  0  0  0  0  0  0
   27.6210   14.0400   21.7530 C   0  0  0  0  0  0  0  0  0  0  0  0
   26.7220   13.2990   22.5190 C   0  0  0  0  0  0  0  0  0  0  0  0
   25.3970   13.6490   22.6440 C   0  0  0  0  0  0  0  0  0  0  0  0
   24.6010   12.8210   23.4460 N   0  0  0  0  0  0  0  0  0  0  0  0
   23.9620   13.1330   24.6320 C   0  0  0  0  0  0  0  0  0  0  0  0
   24.0990   14.1800   25.2520 O   0  0  0  0  0  0  0  0  0  0  0  0
   23.0200   12.1040   25.1350 C   0  0  0  0  0  0  0  0  0  0  0  0
   22.7340   10.9930   24.3600 C   0  0  0  0  0  0  0  0  0  0  0  0
   21.8470   10.0650   24.8770 C   0  0  0  0  0  0  0  0  0  0  0  0
   21.2890   10.2670   26.1240 C   0  0  0  0  0  0  0  0  0  0  0  0
   20.4160    9.3980   26.6630 F   0  0  0  0  0  0  0  0  0  0  0  0
   21.6310   11.4060   26.8160 C   0  0  0  0  0  0  0  0  0  0  0  0
   22.4840   12.3280   26.3390 N   0  0  0  0  0  0  0  0  0  0  0  0
   24.9090   14.7880   22.0160 C   0  0  0  0  0  0  0  0  0  0  0  0
   25.7850   15.5340   21.2480 C   0  0  0  0  0  0  0  0  0  0  0  0
   27.1050   15.1530   21.1060 C   0  0  0  0  0  0  0  0  0  0  0  0
   27.9380   15.8860   20.3230 F   0  0  0  0  0  0  0  0  0  0  0  0
   29.5920   13.4920   20.2160 C   0  0  0  0  0  0  0  0  0  0  0  0
   28.7350   12.1960   19.3570 S   0  0  0  0  0  0  0  0  0  0  0  0
   29.6490   11.6930   18.3480 O   0  0  0  0  0  0  0  0  0  0  0  0
   27.3710   12.5430   19.1050 O   0  0  0  0  0  0  0  0  0  0  0  0
   28.0181    9.0148   20.9634 H   0  0  0  0  0  0  0  0  0  0  0  0
   27.3124    9.7721   19.4954 H   0  0  0  0  0  0  0  0  0  0  0  0
   29.0283    9.2405   19.4954 H   0  0  0  0  0  0  0  0  0  0  0  0
   29.6100   10.1410   23.5650 H   0  0  0  0  0  0  0  0  0  0  0  0
   29.0920    9.2080   22.2350 H   0  0  0  0  0  0  0  0  0  0  0  0
   29.8581   14.5622   23.4194 H   0  0  0  0  0  0  0  0  0  0  0  0
   31.0012   14.5324   22.0341 H   0  0  0  0  0  0  0  0  0  0  0  0
   29.6199   15.6807   22.0341 H   0  0  0  0  0  0  0  0  0  0  0  0
   27.0850   12.4022   23.0424 H   0  0  0  0  0  0  0  0  0  0  0  0
   24.4820   11.8980   23.1240 H   0  0  0  0  0  0  0  0  0  0  0  0
   23.1943   10.8532   23.3708 H   0  0  0  0  0  0  0  0  0  0  0  0
   21.5869    9.1681   24.2957 H   0  0  0  0  0  0  0  0  0  0  0  0
   21.1844   11.5697   27.8078 H   0  0  0  0  0  0  0  0  0  0  0  0
   23.8565   15.0880   22.1262 H   0  0  0  0  0  0  0  0  0  0  0  0
   25.4254   16.4430   20.7435 H   0  0  0  0  0  0  0  0  0  0  0  0
   29.4356   14.4423   19.6845 H   0  0  0  0  0  0  0  0  0  0  0  0
   30.6635   13.2454   20.2498 H   0  0  0  0  0  0  0  0  0  0  0  0
  1  2  1  0
  2  3  1  0
  3  4  1  0
  3  5  2  0
  5  6  1  0
  6  7  1  1
  6  8  1  0
  8  9  2  0
  9 10  1  0
 10 11  1  0
 11 12  1  0
 12 13  2  0
 12 14  1  0
 14 15  2  0
 15 16  1  0
 16 17  2  0
 17 18  1  0
 17 19  1  0
 19 20  2  0
 10 21  2  0
 21 22  1  0
 22 23  2  0
 23 24  1  0
  6 25  1  0
 25 26  1  0
 26 27  2  0
 26 28  2  0
 26  2  1  0
 23  8  1  0
 20 14  1  0
  1 29  1  0
  1 30  1  0
  1 31  1  0
  4 32  1  0
  4 33  1  0
  7 34  1  0
  7 35  1  0
  7 36  1  0
  9 37  1  0
 11 38  1  0
 15 39  1  0
 16 40  1  0
 19 41  1  0
 21 42  1  0
 22 43  1  0
 25 44  1  0
 25 45  1  0
M  END
>  <meeko>  (5)
{"is_sidechain": false}

>  <source_group>  (5)
BACE1-457

>  <source_system>  (5)
BACE1_verubecestat

>  <source_run>  (5)
alternate_457_seed2207_ex32

>  <source_seed>  (5)
2207

>  <vina_pose_rank>  (5)
5

>  <vina_affinity_kcal_mol>  (5)
-7.665

>  <vina_rmsd_to_crystal_angstrom>  (5)
7.7850999999999999

$$$$
BACE1_verubecestat__alternate_457_seed2207_ex32__pose06
     RDKit          3D

 45 47  0  0  0  0  0  0  0  0999 V2000
   21.0250   12.7130   16.3250 C   0  0  0  0  0  0  0  0  0  0  0  0
   22.1990   12.9030   17.2010 N   0  0  0  0  0  0  0  0  0  0  0  0
   23.4280   12.2360   16.9980 C   0  0  0  0  0  0  0  0  0  0  0  0
   23.4840   11.5180   15.8340 N   0  0  0  0  0  0  0  0  0  0  0  0
   24.4310   12.3070   17.8170 N   0  0  0  0  0  0  0  0  0  0  0  0
   24.3270   12.9990   19.1010 C   0  0  2  0  0  0  0  0  0  0  0  0
   25.7910   13.2400   19.4800 C   0  0  0  0  0  0  0  0  0  0  0  0
   23.6810   12.1280   20.1670 C   0  0  0  0  0  0  0  0  0  0  0  0
   23.2300   10.8430   19.8710 C   0  0  0  0  0  0  0  0  0  0  0  0
   22.6380   10.0340   20.8150 C   0  0  0  0  0  0  0  0  0  0  0  0
   22.2320    8.7640   20.3870 N   0  0  0  0  0  0  0  0  0  0  0  0
   21.4890    8.4330   19.2670 C   0  0  0  0  0  0  0  0  0  0  0  0
   20.9470    9.2370   18.5190 O   0  0  0  0  0  0  0  0  0  0  0  0
   21.4010    6.9830   18.9710 C   0  0  0  0  0  0  0  0  0  0  0  0
   22.5570    6.2320   18.8460 C   0  0  0  0  0  0  0  0  0  0  0  0
   22.4170    4.8840   18.5680 C   0  0  0  0  0  0  0  0  0  0  0  0
   21.1550    4.3380   18.4290 C   0  0  0  0  0  0  0  0  0  0  0  0
   20.9700    3.0360   18.1500 F   0  0  0  0  0  0  0  0  0  0  0  0
   20.0650    5.1670   18.5660 C   0  0  0  0  0  0  0  0  0  0  0  0
   20.1700    6.4800   18.8300 N   0  0  0  0  0  0  0  0  0  0  0  0
   22.4900   10.4740   22.1240 C   0  0  0  0  0  0  0  0  0  0  0  0
   22.9290   11.7490   22.4350 C   0  0  0  0  0  0  0  0  0  0  0  0
   23.4910   12.5610   21.4700 C   0  0  0  0  0  0  0  0  0  0  0  0
   23.8870   13.8190   21.7950 F   0  0  0  0  0  0  0  0  0  0  0  0
   23.6900   14.3570   18.9090 C   0  0  0  0  0  0  0  0  0  0  0  0
   22.0200   14.1900   18.3300 S   0  0  0  0  0  0  0  0  0  0  0  0
   21.7240   15.3910   17.5700 O   0  0  0  0  0  0  0  0  0  0  0  0
   21.1650   13.6450   19.3380 O   0  0  0  0  0  0  0  0  0  0  0  0
   20.1264   12.5676   16.9426 H   0  0  0  0  0  0  0  0  0  0  0  0
   20.8937   13.6016   15.6900 H   0  0  0  0  0  0  0  0  0  0  0  0
   21.1806   11.8284   15.6900 H   0  0  0  0  0  0  0  0  0  0  0  0
   24.3000   11.0180   15.6030 H   0  0  0  0  0  0  0  0  0  0  0  0
   22.7080   11.5010   15.2270 H   0  0  0  0  0  0  0  0  0  0  0  0
   25.8883   13.2560   20.5756 H   0  0  0  0  0  0  0  0  0  0  0  0
   26.4141   12.4323   19.0683 H   0  0  0  0  0  0  0  0  0  0  0  0
   26.1223   14.2048   19.0683 H   0  0  0  0  0  0  0  0  0  0  0  0
   23.3513   10.4613   18.8465 H   0  0  0  0  0  0  0  0  0  0  0  0
   22.5100    8.0100   20.9560 H   0  0  0  0  0  0  0  0  0  0  0  0
   23.5502    6.6900   18.9634 H   0  0  0  0  0  0  0  0  0  0  0  0
   23.3079    4.2483   18.4579 H   0  0  0  0  0  0  0  0  0  0  0  0
   19.0601    4.7339   18.4540 H   0  0  0  0  0  0  0  0  0  0  0  0
   22.0373    9.8282   22.8908 H   0  0  0  0  0  0  0  0  0  0  0  0
   22.8288   12.1208   23.4654 H   0  0  0  0  0  0  0  0  0  0  0  0
   23.6874   14.8937   19.8692 H   0  0  0  0  0  0  0  0  0  0  0  0
   24.2697   14.9171   18.1605 H   0  0  0  0  0  0  0  0  0  0  0  0
  1  2  1  0
  2  3  1  0
  3  4  1  0
  3  5  2  0
  5  6  1  0
  6  7  1  1
  6  8  1  0
  8  9  2  0
  9 10  1  0
 10 11  1  0
 11 12  1  0
 12 13  2  0
 12 14  1  0
 14 15  2  0
 15 16  1  0
 16 17  2  0
 17 18  1  0
 17 19  1  0
 19 20  2  0
 10 21  2  0
 21 22  1  0
 22 23  2  0
 23 24  1  0
  6 25  1  0
 25 26  1  0
 26 27  2  0
 26 28  2  0
 26  2  1  0
 23  8  1  0
 20 14  1  0
  1 29  1  0
  1 30  1  0
  1 31  1  0
  4 32  1  0
  4 33  1  0
  7 34  1  0
  7 35  1  0
  7 36  1  0
  9 37  1  0
 11 38  1  0
 15 39  1  0
 16 40  1  0
 19 41  1  0
 21 42  1  0
 22 43  1  0
 25 44  1  0
 25 45  1  0
M  END
>  <meeko>  (6)
{"is_sidechain": false}

>  <source_group>  (6)
BACE1-457

>  <source_system>  (6)
BACE1_verubecestat

>  <source_run>  (6)
alternate_457_seed2207_ex32

>  <source_seed>  (6)
2207

>  <vina_pose_rank>  (6)
6

>  <vina_affinity_kcal_mol>  (6)
-7.6509999999999998

>  <vina_rmsd_to_crystal_angstrom>  (6)
7.2554999999999996

$$$$
BACE1_verubecestat__alternate_457_seed2207_ex32__pose07
     RDKit          3D

 45 47  0  0  0  0  0  0  0  0999 V2000
   26.2240   11.2280   16.7100 C   0  0  0  0  0  0  0  0  0  0  0  0
   26.4140   11.5830   18.1300 N   0  0  0  0  0  0  0  0  0  0  0  0
   27.1000   10.7550   19.0460 C   0  0  0  0  0  0  0  0  0  0  0  0
   27.7030    9.6700   18.4690 N   0  0  0  0  0  0  0  0  0  0  0  0
   27.1820   10.9990   20.3180 N   0  0  0  0  0  0  0  0  0  0  0  0
   26.4560   12.1070   20.9360 C   0  0  2  0  0  0  0  0  0  0  0  0
   27.1930   12.3010   22.2640 C   0  0  0  0  0  0  0  0  0  0  0  0
   25.0070   11.7480   21.2270 C   0  0  0  0  0  0  0  0  0  0  0  0
   24.4800   10.5160   20.8430 C   0  0  0  0  0  0  0  0  0  0  0  0
   23.1720   10.1660   21.0900 C   0  0  0  0  0  0  0  0  0  0  0  0
   22.7690    8.8970   20.6540 N   0  0  0  0  0  0  0  0  0  0  0  0
   21.9580    8.5770   19.5790 C   0  0  0  0  0  0  0  0  0  0  0  0
   21.3440    9.3850   18.8950 O   0  0  0  0  0  0  0  0  0  0  0  0
   21.8870    7.1330   19.2470 C   0  0  0  0  0  0  0  0  0  0  0  0
   22.7020    6.6110   18.2580 C   0  0  0  0  0  0  0  0  0  0  0  0
   22.5920    5.2580   17.9880 C   0  0  0  0  0  0  0  0  0  0  0  0
   21.6960    4.4850   18.7000 C   0  0  0  0  0  0  0  0  0  0  0  0
   21.5480    3.1690   18.4670 F   0  0  0  0  0  0  0  0  0  0  0  0
   20.9240    5.0970   19.6610 C   0  0  0  0  0  0  0  0  0  0  0  0
   21.0040    6.4080   19.9420 N   0  0  0  0  0  0  0  0  0  0  0  0
   22.3250   11.0370   21.7630 C   0  0  0  0  0  0  0  0  0  0  0  0
   22.8310   12.2660   22.1490 C   0  0  0  0  0  0  0  0  0  0  0  0
   24.1360   12.6170   21.8660 C   0  0  0  0  0  0  0  0  0  0  0  0
   24.5990   13.8410   22.2290 F   0  0  0  0  0  0  0  0  0  0  0  0
   26.6540   13.3710   20.1300 C   0  0  0  0  0  0  0  0  0  0  0  0
   25.9520   13.1980   18.5090 S   0  0  0  0  0  0  0  0  0  0  0  0
   26.7080   14.0770   17.6350 O   0  0  0  0  0  0  0  0  0  0  0  0
   24.5240   13.1440   18.5550 O   0  0  0  0  0  0  0  0  0  0  0  0
   25.7060   10.2601   16.6402 H   0  0  0  0  0  0  0  0  0  0  0  0
   25.6203   12.0035   16.2158 H   0  0  0  0  0  0  0  0  0  0  0  0
   27.2041   11.1558   16.2158 H   0  0  0  0  0  0  0  0  0  0  0  0
   28.2070    9.0330   19.0260 H   0  0  0  0  0  0  0  0  0  0  0  0
   27.6340    9.5270   17.4980 H   0  0  0  0  0  0  0  0  0  0  0  0
   26.4996   12.1185   23.0982 H   0  0  0  0  0  0  0  0  0  0  0  0
   28.0331   11.5934   22.3239 H   0  0  0  0  0  0  0  0  0  0  0  0
   27.5758   13.3305   22.3239 H   0  0  0  0  0  0  0  0  0  0  0  0
   25.1325    9.7982   20.3243 H   0  0  0  0  0  0  0  0  0  0  0  0
   23.1060    8.1350   21.1800 H   0  0  0  0  0  0  0  0  0  0  0  0
   23.4104    7.2473   17.7073 H   0  0  0  0  0  0  0  0  0  0  0  0
   23.2171    4.7992   17.2077 H   0  0  0  0  0  0  0  0  0  0  0  0
   20.2071    4.4831   20.2260 H   0  0  0  0  0  0  0  0  0  0  0  0
   21.2837   10.7585   21.9825 H   0  0  0  0  0  0  0  0  0  0  0  0
   22.1843   12.9732   22.6889 H   0  0  0  0  0  0  0  0  0  0  0  0
   26.1652   14.2096   20.6476 H   0  0  0  0  0  0  0  0  0  0  0  0
   27.7328   13.5611   20.0297 H   0  0  0  0  0  0  0  0  0  0  0  0
  1  2  1  0
  2  3  1  0
  3  4  1  0
  3  5  2  0
  5  6  1  0
  6  7  1  1
  6  8  1  0
  8  9  2  0
  9 10  1  0
 10 11  1  0
 11 12  1  0
 12 13  2  0
 12 14  1  0
 14 15  2  0
 15 16  1  0
 16 17  2  0
 17 18  1  0
 17 19  1  0
 19 20  2  0
 10 21  2  0
 21 22  1  0
 22 23  2  0
 23 24  1  0
  6 25  1  0
 25 26  1  0
 26 27  2  0
 26 28  2  0
 26  2  1  0
 23  8  1  0
 20 14  1  0
  1 29  1  0
  1 30  1  0
  1 31  1  0
  4 32  1  0
  4 33  1  0
  7 34  1  0
  7 35  1  0
  7 36  1  0
  9 37  1  0
 11 38  1  0
 15 39  1  0
 16 40  1  0
 19 41  1  0
 21 42  1  0
 22 43  1  0
 25 44  1  0
 25 45  1  0
M  END
>  <meeko>  (7)
{"is_sidechain": false}

>  <source_group>  (7)
BACE1-457

>  <source_system>  (7)
BACE1_verubecestat

>  <source_run>  (7)
alternate_457_seed2207_ex32

>  <source_seed>  (7)
2207

>  <vina_pose_rank>  (7)
7

>  <vina_affinity_kcal_mol>  (7)
-7.2539999999999996

>  <vina_rmsd_to_crystal_angstrom>  (7)
7.1245000000000003

$$$$
BACE1_verubecestat__alternate_457_seed2207_ex32__pose08
     RDKit          3D

 45 47  0  0  0  0  0  0  0  0999 V2000
   28.4640   16.0470   22.7440 C   0  0  0  0  0  0  0  0  0  0  0  0
   28.2690   14.6660   22.2590 N   0  0  0  0  0  0  0  0  0  0  0  0
   28.5570   14.2680   20.9340 C   0  0  0  0  0  0  0  0  0  0  0  0
   29.1740   15.2340   20.1860 N   0  0  0  0  0  0  0  0  0  0  0  0
   28.2920   13.0900   20.4610 N   0  0  0  0  0  0  0  0  0  0  0  0
   27.5490   12.0990   21.2390 C   0  0  2  0  0  0  0  0  0  0  0  0
   27.8820   10.7850   20.5270 C   0  0  0  0  0  0  0  0  0  0  0  0
   26.0470   12.3280   21.1690 C   0  0  0  0  0  0  0  0  0  0  0  0
   25.2100   11.9440   22.2160 C   0  0  0  0  0  0  0  0  0  0  0  0
   23.8480   12.1360   22.1780 C   0  0  0  0  0  0  0  0  0  0  0  0
   23.1220   11.7070   23.2970 N   0  0  0  0  0  0  0  0  0  0  0  0
   22.5030   12.4780   24.2640 C   0  0  0  0  0  0  0  0  0  0  0  0
   22.6030   13.6940   24.3660 O   0  0  0  0  0  0  0  0  0  0  0  0
   21.6330   11.7330   25.2070 C   0  0  0  0  0  0  0  0  0  0  0  0
   21.7740   10.3620   25.3400 C   0  0  0  0  0  0  0  0  0  0  0  0
   20.9350    9.7180   26.2330 C   0  0  0  0  0  0  0  0  0  0  0  0
   20.0060   10.4450   26.9510 C   0  0  0  0  0  0  0  0  0  0  0  0
   19.1640    9.8610   27.8210 F   0  0  0  0  0  0  0  0  0  0  0  0
   19.9380   11.8040   26.7450 C   0  0  0  0  0  0  0  0  0  0  0  0
   20.7340   12.4560   25.8820 N   0  0  0  0  0  0  0  0  0  0  0  0
   23.2540   12.7520   21.0830 C   0  0  0  0  0  0  0  0  0  0  0  0
   24.0690   13.1370   20.0330 C   0  0  0  0  0  0  0  0  0  0  0  0
   25.4300   12.9090   20.0710 C   0  0  0  0  0  0  0  0  0  0  0  0
   26.2030   13.2700   19.0140 F   0  0  0  0  0  0  0  0  0  0  0  0
   28.1180   12.0040   22.6370 C   0  0  0  0  0  0  0  0  0  0  0  0
   27.9060   13.5370   23.5060 S   0  0  0  0  0  0  0  0  0  0  0  0
   28.9810   13.6120   24.4800 O   0  0  0  0  0  0  0  0  0  0  0  0
   26.5310   13.7880   23.8060 O   0  0  0  0  0  0  0  0  0  0  0  0
   28.4648   16.0526   23.8440 H   0  0  0  0  0  0  0  0  0  0  0  0
   29.4256   16.4330   22.3747 H   0  0  0  0  0  0  0  0  0  0  0  0
   27.6469   16.6841   22.3747 H   0  0  0  0  0  0  0  0  0  0  0  0
   29.4150   15.0520   19.2490 H   0  0  0  0  0  0  0  0  0  0  0  0
   29.3760   16.1120   20.5840 H   0  0  0  0  0  0  0  0  0  0  0  0
   28.0802   10.0029   21.2746 H   0  0  0  0  0  0  0  0  0  0  0  0
   27.0319   10.4834   19.8974 H   0  0  0  0  0  0  0  0  0  0  0  0
   28.7731   10.9247   19.8974 H   0  0  0  0  0  0  0  0  0  0  0  0
   25.6543   11.4707   23.1040 H   0  0  0  0  0  0  0  0  0  0  0  0
   23.0430   10.7320   23.4090 H   0  0  0  0  0  0  0  0  0  0  0  0
   22.5240    9.8059   24.7583 H   0  0  0  0  0  0  0  0  0  0  0  0
   21.0081    8.6291   26.3705 H   0  0  0  0  0  0  0  0  0  0  0  0
   19.1964   12.3837   27.3142 H   0  0  0  0  0  0  0  0  0  0  0  0
   22.1687   12.9282   21.0519 H   0  0  0  0  0  0  0  0  0  0  0  0
   23.6262   13.6316   19.1559 H   0  0  0  0  0  0  0  0  0  0  0  0
   27.5987   11.2037   23.1846 H   0  0  0  0  0  0  0  0  0  0  0  0
   29.1933   11.7829   22.5670 H   0  0  0  0  0  0  0  0  0  0  0  0
  1  2  1  0
  2  3  1  0
  3  4  1  0
  3  5  2  0
  5  6  1  0
  6  7  1  6
  6  8  1  0
  8  9  2  0
  9 10  1  0
 10 11  1  0
 11 12  1  0
 12 13  2  0
 12 14  1  0
 14 15  2  0
 15 16  1  0
 16 17  2  0
 17 18  1  0
 17 19  1  0
 19 20  2  0
 10 21  2  0
 21 22  1  0
 22 23  2  0
 23 24  1  0
  6 25  1  0
 25 26  1  0
 26 27  2  0
 26 28  2  0
 26  2  1  0
 23  8  1  0
 20 14  1  0
  1 29  1  0
  1 30  1  0
  1 31  1  0
  4 32  1  0
  4 33  1  0
  7 34  1  0
  7 35  1  0
  7 36  1  0
  9 37  1  0
 11 38  1  0
 15 39  1  0
 16 40  1  0
 19 41  1  0
 21 42  1  0
 22 43  1  0
 25 44  1  0
 25 45  1  0
M  END
>  <meeko>  (8)
{"is_sidechain": false}

>  <source_group>  (8)
BACE1-457

>  <source_system>  (8)
BACE1_verubecestat

>  <source_run>  (8)
alternate_457_seed2207_ex32

>  <source_seed>  (8)
2207

>  <vina_pose_rank>  (8)
8

>  <vina_affinity_kcal_mol>  (8)
-7.2439999999999998

>  <vina_rmsd_to_crystal_angstrom>  (8)
7.5701000000000001

$$$$
BACE1_verubecestat__alternate_457_seed2207_ex32__pose09
     RDKit          3D

 45 47  0  0  0  0  0  0  0  0999 V2000
   23.0310    5.5100   17.1770 C   0  0  0  0  0  0  0  0  0  0  0  0
   22.5530    6.9040   17.2700 N   0  0  0  0  0  0  0  0  0  0  0  0
   22.8980    7.9010   16.3300 C   0  0  0  0  0  0  0  0  0  0  0  0
   23.5870    7.4270   15.2460 N   0  0  0  0  0  0  0  0  0  0  0  0
   22.5780    9.1520   16.4540 N   0  0  0  0  0  0  0  0  0  0  0  0
   21.9260    9.6620   17.6590 C   0  0  2  0  0  0  0  0  0  0  0  0
   21.3310   10.9920   17.1900 C   0  0  0  0  0  0  0  0  0  0  0  0
   22.9230    9.9360   18.7750 C   0  0  0  0  0  0  0  0  0  0  0  0
   22.5290    9.9230   20.1120 C   0  0  0  0  0  0  0  0  0  0  0  0
   23.4080   10.1710   21.1410 C   0  0  0  0  0  0  0  0  0  0  0  0
   22.8840   10.1250   22.4400 N   0  0  0  0  0  0  0  0  0  0  0  0
   22.9290   11.1030   23.4170 C   0  0  0  0  0  0  0  0  0  0  0  0
   23.5640   12.1460   23.3410 O   0  0  0  0  0  0  0  0  0  0  0  0
   22.0990   10.8380   24.6170 C   0  0  0  0  0  0  0  0  0  0  0  0
   21.6800   11.8890   25.4140 C   0  0  0  0  0  0  0  0  0  0  0  0
   20.9090   11.5840   26.5220 C   0  0  0  0  0  0  0  0  0  0  0  0
   20.5850   10.2690   26.7930 C   0  0  0  0  0  0  0  0  0  0  0  0
   19.8470    9.9240   27.8620 F   0  0  0  0  0  0  0  0  0  0  0  0
   21.0530    9.2920   25.9450 C   0  0  0  0  0  0  0  0  0  0  0  0
   21.8080    9.5570   24.8650 N   0  0  0  0  0  0  0  0  0  0  0  0
   24.7480   10.4240   20.8760 C   0  0  0  0  0  0  0  0  0  0  0  0
   25.1570   10.4440   19.5540 C   0  0  0  0  0  0  0  0  0  0  0  0
   24.2560   10.2260   18.5300 C   0  0  0  0  0  0  0  0  0  0  0  0
   24.6770   10.2800   17.2400 F   0  0  0  0  0  0  0  0  0  0  0  0
   20.7670    8.7680   18.0410 C   0  0  0  0  0  0  0  0  0  0  0  0
   21.3430    7.1440   18.4710 S   0  0  0  0  0  0  0  0  0  0  0  0
   20.2560    6.2280   18.1750 O   0  0  0  0  0  0  0  0  0  0  0  0
   22.0760    7.1520   19.6980 O   0  0  0  0  0  0  0  0  0  0  0  0
   23.1709    5.1021   18.1889 H   0  0  0  0  0  0  0  0  0  0  0  0
   22.2895    4.9034   16.6364 H   0  0  0  0  0  0  0  0  0  0  0  0
   23.9887    5.4861   16.6364 H   0  0  0  0  0  0  0  0  0  0  0  0
   23.8720    8.0460   14.5350 H   0  0  0  0  0  0  0  0  0  0  0  0
   23.7970    6.4670   15.1770 H   0  0  0  0  0  0  0  0  0  0  0  0
   21.0587   11.6007   18.0649 H   0  0  0  0  0  0  0  0  0  0  0  0
   22.0732   11.5323   16.5840 H   0  0  0  0  0  0  0  0  0  0  0  0
   20.4335   10.7988   16.5840 H   0  0  0  0  0  0  0  0  0  0  0  0
   21.4777    9.7067   20.3530 H   0  0  0  0  0  0  0  0  0  0  0  0
   22.4240    9.2900   22.6880 H   0  0  0  0  0  0  0  0  0  0  0  0
   21.9498   12.9284   25.1756 H   0  0  0  0  0  0  0  0  0  0  0  0
   20.5550   12.3870   27.1853 H   0  0  0  0  0  0  0  0  0  0  0  0
   20.7972    8.2442   26.1611 H   0  0  0  0  0  0  0  0  0  0  0  0
   25.4628   10.6031   21.6927 H   0  0  0  0  0  0  0  0  0  0  0  0
   26.2135   10.6360   19.3156 H   0  0  0  0  0  0  0  0  0  0  0  0
   20.2425    9.2053   18.9033 H   0  0  0  0  0  0  0  0  0  0  0  0
   20.0853    8.6857   17.1816 H   0  0  0  0  0  0  0  0  0  0  0  0
  1  2  1  0
  2  3  1  0
  3  4  1  0
  3  5  2  0
  5  6  1  0
  6  7  1  6
  6  8  1  0
  8  9  2  0
  9 10  1  0
 10 11  1  0
 11 12  1  0
 12 13  2  0
 12 14  1  0
 14 15  2  0
 15 16  1  0
 16 17  2  0
 17 18  1  0
 17 19  1  0
 19 20  2  0
 10 21  2  0
 21 22  1  0
 22 23  2  0
 23 24  1  0
  6 25  1  0
 25 26  1  0
 26 27  2  0
 26 28  2  0
 26  2  1  0
 23  8  1  0
 20 14  1  0
  1 29  1  0
  1 30  1  0
  1 31  1  0
  4 32  1  0
  4 33  1  0
  7 34  1  0
  7 35  1  0
  7 36  1  0
  9 37  1  0
 11 38  1  0
 15 39  1  0
 16 40  1  0
 19 41  1  0
 21 42  1  0
 22 43  1  0
 25 44  1  0
 25 45  1  0
M  END
>  <meeko>  (9)
{"is_sidechain": false}

>  <source_group>  (9)
BACE1-457

>  <source_system>  (9)
BACE1_verubecestat

>  <source_run>  (9)
alternate_457_seed2207_ex32

>  <source_seed>  (9)
2207

>  <vina_pose_rank>  (9)
9

>  <vina_affinity_kcal_mol>  (9)
-7.2370000000000001

>  <vina_rmsd_to_crystal_angstrom>  (9)
7.0236999999999998

$$$$
BACE1_verubecestat__alternate_457_seed2207_ex32__pose10
     RDKit          3D

 45 47  0  0  0  0  0  0  0  0999 V2000
   24.5650   11.7250   16.3130 C   0  0  0  0  0  0  0  0  0  0  0  0
   23.4120   10.8370   16.0640 N   0  0  0  0  0  0  0  0  0  0  0  0
   22.0770   11.2180   16.3230 C   0  0  0  0  0  0  0  0  0  0  0  0
   21.9330   12.5320   16.6810 N   0  0  0  0  0  0  0  0  0  0  0  0
   21.0630   10.4160   16.2130 N   0  0  0  0  0  0  0  0  0  0  0  0
   21.2380    8.9930   15.9240 C   0  0  2  0  0  0  0  0  0  0  0  0
   19.8520    8.5720   15.4260 C   0  0  0  0  0  0  0  0  0  0  0  0
   21.5750    8.1940   17.1720 C   0  0  0  0  0  0  0  0  0  0  0  0
   21.7960    8.8270   18.3950 C   0  0  0  0  0  0  0  0  0  0  0  0
   22.1060    8.1290   19.5400 C   0  0  0  0  0  0  0  0  0  0  0  0
   22.3010    8.8860   20.7030 N   0  0  0  0  0  0  0  0  0  0  0  0
   23.2830    9.8270   20.9580 C   0  0  0  0  0  0  0  0  0  0  0  0
   24.2400   10.0610   20.2320 O   0  0  0  0  0  0  0  0  0  0  0  0
   23.0990   10.6120   22.2030 C   0  0  0  0  0  0  0  0  0  0  0  0
   22.7410   11.9470   22.1310 C   0  0  0  0  0  0  0  0  0  0  0  0
   22.5850   12.6310   23.3240 C   0  0  0  0  0  0  0  0  0  0  0  0
   22.7840   11.9770   24.5240 C   0  0  0  0  0  0  0  0  0  0  0  0
   22.6530   12.6030   25.7060 F   0  0  0  0  0  0  0  0  0  0  0  0
   23.1440   10.6490   24.4920 C   0  0  0  0  0  0  0  0  0  0  0  0
   23.3090    9.9590   23.3510 N   0  0  0  0  0  0  0  0  0  0  0  0
   22.1870    6.7420   19.5180 C   0  0  0  0  0  0  0  0  0  0  0  0
   21.9740    6.0970   18.3130 C   0  0  0  0  0  0  0  0  0  0  0  0
   21.6960    6.8130   17.1650 C   0  0  0  0  0  0  0  0  0  0  0  0
   21.5200    6.1580   15.9890 F   0  0  0  0  0  0  0  0  0  0  0  0
   22.1970    8.8120   14.7680 C   0  0  0  0  0  0  0  0  0  0  0  0
   23.8140    9.4050   15.1980 S   0  0  0  0  0  0  0  0  0  0  0  0
   24.4470    9.8160   13.9570 O   0  0  0  0  0  0  0  0  0  0  0  0
   24.4370    8.5740   16.1800 O   0  0  0  0  0  0  0  0  0  0  0  0
   24.7128   11.8388   17.3971 H   0  0  0  0  0  0  0  0  0  0  0  0
   25.4686   11.2873   15.8637 H   0  0  0  0  0  0  0  0  0  0  0  0
   24.3726   12.7105   15.8637 H   0  0  0  0  0  0  0  0  0  0  0  0
   21.0400   12.8920   16.8820 H   0  0  0  0  0  0  0  0  0  0  0  0
   22.7240   13.1170   16.7370 H   0  0  0  0  0  0  0  0  0  0  0  0
   19.1976    8.3732   16.2875 H   0  0  0  0  0  0  0  0  0  0  0  0
   19.4205    9.3796   14.8164 H   0  0  0  0  0  0  0  0  0  0  0  0
   19.9426    7.6608   14.8164 H   0  0  0  0  0  0  0  0  0  0  0  0
   21.7198    9.9232   18.4463 H   0  0  0  0  0  0  0  0  0  0  0  0
   21.6580    8.7280   21.4310 H   0  0  0  0  0  0  0  0  0  0  0  0
   22.5864   12.4453   21.1626 H   0  0  0  0  0  0  0  0  0  0  0  0
   22.3029   13.6942   23.3164 H   0  0  0  0  0  0  0  0  0  0  0  0
   23.3044   10.1272   25.4470 H   0  0  0  0  0  0  0  0  0  0  0  0
   22.4139    6.1736   20.4320 H   0  0  0  0  0  0  0  0  0  0  0  0
   22.0267    4.9992   18.2684 H   0  0  0  0  0  0  0  0  0  0  0  0
   22.2596    7.7435   14.5142 H   0  0  0  0  0  0  0  0  0  0  0  0
   21.8262    9.3869   13.9066 H   0  0  0  0  0  0  0  0  0  0  0  0
  1  2  1  0
  2  3  1  0
  3  4  1  0
  3  5  2  0
  5  6  1  0
  6  7  1  6
  6  8  1  0
  8  9  2  0
  9 10  1  0
 10 11  1  0
 11 12  1  0
 12 13  2  0
 12 14  1  0
 14 15  2  0
 15 16  1  0
 16 17  2  0
 17 18  1  0
 17 19  1  0
 19 20  2  0
 10 21  2  0
 21 22  1  0
 22 23  2  0
 23 24  1  0
  6 25  1  0
 25 26  1  0
 26 27  2  0
 26 28  2  0
 26  2  1  0
 23  8  1  0
 20 14  1  0
  1 29  1  0
  1 30  1  0
  1 31  1  0
  4 32  1  0
  4 33  1  0
  7 34  1  0
  7 35  1  0
  7 36  1  0
  9 37  1  0
 11 38  1  0
 15 39  1  0
 16 40  1  0
 19 41  1  0
 21 42  1  0
 22 43  1  0
 25 44  1  0
 25 45  1  0
M  END
>  <meeko>  (10)
{"is_sidechain": false}

>  <source_group>  (10)
BACE1-457

>  <source_system>  (10)
BACE1_verubecestat

>  <source_run>  (10)
alternate_457_seed2207_ex32

>  <source_seed>  (10)
2207

>  <vina_pose_rank>  (10)
10

>  <vina_affinity_kcal_mol>  (10)
-7.2309999999999999

>  <vina_rmsd_to_crystal_angstrom>  (10)
6.9779999999999998

$$$$
BACE1_verubecestat__alternate_457_seed2207_ex32__pose11
     RDKit          3D

 45 47  0  0  0  0  0  0  0  0999 V2000
   22.7820    4.4360   17.3970 C   0  0  0  0  0  0  0  0  0  0  0  0
   22.2440    5.7830   17.1210 N   0  0  0  0  0  0  0  0  0  0  0  0
   22.2980    6.3860   15.8450 C   0  0  0  0  0  0  0  0  0  0  0  0
   22.7530    5.5560   14.8560 N   0  0  0  0  0  0  0  0  0  0  0  0
   21.9300    7.6080   15.6080 N   0  0  0  0  0  0  0  0  0  0  0  0
   21.5360    8.5140   16.6860 C   0  0  2  0  0  0  0  0  0  0  0  0
   20.7610    9.6080   15.9480 C   0  0  0  0  0  0  0  0  0  0  0  0
   22.7400    9.1420   17.3720 C   0  0  0  0  0  0  0  0  0  0  0  0
   22.6790    9.5450   18.7050 C   0  0  0  0  0  0  0  0  0  0  0  0
   23.7510   10.1190   19.3500 C   0  0  0  0  0  0  0  0  0  0  0  0
   23.5590   10.4760   20.6910 N   0  0  0  0  0  0  0  0  0  0  0  0
   22.8420   11.5450   21.1980 C   0  0  0  0  0  0  0  0  0  0  0  0
   22.3520   12.4460   20.5300 O   0  0  0  0  0  0  0  0  0  0  0  0
   22.6470   11.5360   22.6690 C   0  0  0  0  0  0  0  0  0  0  0  0
   22.6620   12.7260   23.3750 C   0  0  0  0  0  0  0  0  0  0  0  0
   22.4770   12.6580   24.7450 C   0  0  0  0  0  0  0  0  0  0  0  0
   22.2850   11.4330   25.3540 C   0  0  0  0  0  0  0  0  0  0  0  0
   22.1110   11.3180   26.6810 F   0  0  0  0  0  0  0  0  0  0  0  0
   22.2920   10.3040   24.5670 C   0  0  0  0  0  0  0  0  0  0  0  0
   22.4740   10.3370   23.2360 N   0  0  0  0  0  0  0  0  0  0  0  0
   24.9580   10.2970   18.6860 C   0  0  0  0  0  0  0  0  0  0  0  0
   25.0360    9.9060   17.3610 C   0  0  0  0  0  0  0  0  0  0  0  0
   23.9420    9.3610   16.7170 C   0  0  0  0  0  0  0  0  0  0  0  0
   24.0350    9.0130   15.4080 F   0  0  0  0  0  0  0  0  0  0  0  0
   20.5580    7.8250   17.6120 C   0  0  0  0  0  0  0  0  0  0  0  0
   21.3250    6.4430   18.4180 S   0  0  0  0  0  0  0  0  0  0  0  0
   20.2650    5.4980   18.7180 O   0  0  0  0  0  0  0  0  0  0  0  0
   22.3160    6.8640   19.3590 O   0  0  0  0  0  0  0  0  0  0  0  0
   22.8437    4.2815   18.4844 H   0  0  0  0  0  0  0  0  0  0  0  0
   22.1175    3.6783   16.9561 H   0  0  0  0  0  0  0  0  0  0  0  0
   23.7856    4.3446   16.9561 H   0  0  0  0  0  0  0  0  0  0  0  0
   22.8270    5.8860   13.9310 H   0  0  0  0  0  0  0  0  0  0  0  0
   23.0070    4.6290   15.0690 H   0  0  0  0  0  0  0  0  0  0  0  0
   20.2862   10.2782   16.6797 H   0  0  0  0  0  0  0  0  0  0  0  0
   21.4527   10.1852   15.3169 H   0  0  0  0  0  0  0  0  0  0  0  0
   19.9870    9.1469   15.3169 H   0  0  0  0  0  0  0  0  0  0  0  0
   21.7412    9.3992   19.2611 H   0  0  0  0  0  0  0  0  0  0  0  0
   23.9890    9.8930   21.3570 H   0  0  0  0  0  0  0  0  0  0  0  0
   22.8151   13.6894   22.8667 H   0  0  0  0  0  0  0  0  0  0  0  0
   22.4828   13.5780   25.3480 H   0  0  0  0  0  0  0  0  0  0  0  0
   22.1414    9.3276   25.0508 H   0  0  0  0  0  0  0  0  0  0  0  0
   25.8266   10.7360   19.1986 H   0  0  0  0  0  0  0  0  0  0  0  0
   25.9817   10.0308   16.8131 H   0  0  0  0  0  0  0  0  0  0  0  0
   20.2147    8.5417   18.3726 H   0  0  0  0  0  0  0  0  0  0  0  0
   19.7062    7.4606   17.0191 H   0  0  0  0  0  0  0  0  0  0  0  0
  1  2  1  0
  2  3  1  0
  3  4  1  0
  3  5  2  0
  5  6  1  0
  6  7  1  6
  6  8  1  0
  8  9  2  0
  9 10  1  0
 10 11  1  0
 11 12  1  0
 12 13  2  0
 12 14  1  0
 14 15  2  0
 15 16  1  0
 16 17  2  0
 17 18  1  0
 17 19  1  0
 19 20  2  0
 10 21  2  0
 21 22  1  0
 22 23  2  0
 23 24  1  0
  6 25  1  0
 25 26  1  0
 26 27  2  0
 26 28  2  0
 26  2  1  0
 23  8  1  0
 20 14  1  0
  1 29  1  0
  1 30  1  0
  1 31  1  0
  4 32  1  0
  4 33  1  0
  7 34  1  0
  7 35  1  0
  7 36  1  0
  9 37  1  0
 11 38  1  0
 15 39  1  0
 16 40  1  0
 19 41  1  0
 21 42  1  0
 22 43  1  0
 25 44  1  0
 25 45  1  0
M  END
>  <meeko>  (11)
{"is_sidechain": false}

>  <source_group>  (11)
BACE1-457

>  <source_system>  (11)
BACE1_verubecestat

>  <source_run>  (11)
alternate_457_seed2207_ex32

>  <source_seed>  (11)
2207

>  <vina_pose_rank>  (11)
11

>  <vina_affinity_kcal_mol>  (11)
-7.1719999999999997

>  <vina_rmsd_to_crystal_angstrom>  (11)
6.8479000000000001

$$$$
BACE1_verubecestat__alternate_457_seed2207_ex32__pose12
     RDKit          3D

 45 47  0  0  0  0  0  0  0  0999 V2000
   27.2310   10.6400   20.0040 C   0  0  0  0  0  0  0  0  0  0  0  0
   26.5600   11.9350   20.2320 N   0  0  0  0  0  0  0  0  0  0  0  0
   27.1920   13.1790   20.0100 C   0  0  0  0  0  0  0  0  0  0  0  0
   28.4240   13.0790   19.4220 N   0  0  0  0  0  0  0  0  0  0  0  0
   26.6570   14.3230   20.3070 N   0  0  0  0  0  0  0  0  0  0  0  0
   25.3840   14.4140   21.0200 C   0  0  2  0  0  0  0  0  0  0  0  0
   24.9310   15.8470   20.7310 C   0  0  0  0  0  0  0  0  0  0  0  0
   25.5580   14.2470   22.5220 C   0  0  0  0  0  0  0  0  0  0  0  0
   24.5260   13.7470   23.3150 C   0  0  0  0  0  0  0  0  0  0  0  0
   24.6540   13.5880   24.6760 C   0  0  0  0  0  0  0  0  0  0  0  0
   23.5430   13.0740   25.3560 N   0  0  0  0  0  0  0  0  0  0  0  0
   23.1360   11.7550   25.4580 C   0  0  0  0  0  0  0  0  0  0  0  0
   23.6280   10.8170   24.8470 O   0  0  0  0  0  0  0  0  0  0  0  0
   22.0370   11.5050   26.4230 C   0  0  0  0  0  0  0  0  0  0  0  0
   20.8560   10.9270   25.9910 C   0  0  0  0  0  0  0  0  0  0  0  0
   19.8640   10.7190   26.9330 C   0  0  0  0  0  0  0  0  0  0  0  0
   20.0780   11.0810   28.2490 C   0  0  0  0  0  0  0  0  0  0  0  0
   19.1410   10.9060   29.1960 F   0  0  0  0  0  0  0  0  0  0  0  0
   21.2840   11.6550   28.5810 C   0  0  0  0  0  0  0  0  0  0  0  0
   22.2630   11.8750   27.6880 N   0  0  0  0  0  0  0  0  0  0  0  0
   25.8480   13.9070   25.3120 C   0  0  0  0  0  0  0  0  0  0  0  0
   26.8820   14.4070   24.5410 C   0  0  0  0  0  0  0  0  0  0  0  0
   26.7280   14.5910   23.1810 C   0  0  0  0  0  0  0  0  0  0  0  0
   27.7480   15.1120   22.4520 F   0  0  0  0  0  0  0  0  0  0  0  0
   24.3670   13.4910   20.3870 C   0  0  0  0  0  0  0  0  0  0  0  0
   24.8730   11.7970   20.5440 S   0  0  0  0  0  0  0  0  0  0  0  0
   24.2850   11.0830   19.4250 O   0  0  0  0  0  0  0  0  0  0  0  0
   24.8120   11.3520   21.9020 O   0  0  0  0  0  0  0  0  0  0  0  0
   27.4714   10.1761   20.9720 H   0  0  0  0  0  0  0  0  0  0  0  0
   26.5634    9.9763   19.4350 H   0  0  0  0  0  0  0  0  0  0  0  0
   28.1583   10.8027   19.4350 H   0  0  0  0  0  0  0  0  0  0  0  0
   28.9440   13.8920   19.2260 H   0  0  0  0  0  0  0  0  0  0  0  0
   28.7910   12.1940   19.1940 H   0  0  0  0  0  0  0  0  0  0  0  0
   24.7634   16.3771   21.6802 H   0  0  0  0  0  0  0  0  0  0  0  0
   25.7084   16.3677   20.1525 H   0  0  0  0  0  0  0  0  0  0  0  0
   23.9956   15.8262   20.1525 H   0  0  0  0  0  0  0  0  0  0  0  0
   23.5755   13.4697   22.8357 H   0  0  0  0  0  0  0  0  0  0  0  0
   22.9790   13.7350   25.8190 H   0  0  0  0  0  0  0  0  0  0  0  0
   20.7113   10.6435   24.9380 H   0  0  0  0  0  0  0  0  0  0  0  0
   18.9069   10.2663   26.6346 H   0  0  0  0  0  0  0  0  0  0  0  0
   21.4543   11.9476   29.6276 H   0  0  0  0  0  0  0  0  0  0  0  0
   25.9672   13.7660   26.3964 H   0  0  0  0  0  0  0  0  0  0  0  0
   27.8401   14.6615   25.0178 H   0  0  0  0  0  0  0  0  0  0  0  0
   23.3966   13.6257   20.8872 H   0  0  0  0  0  0  0  0  0  0  0  0
   24.2832   13.7372   19.3182 H   0  0  0  0  0  0  0  0  0  0  0  0
  1  2  1  0
  2  3  1  0
  3  4  1  0
  3  5  2  0
  5  6  1  0
  6  7  1  1
  6  8  1  0
  8  9  2  0
  9 10  1  0
 10 11  1  0
 11 12  1  0
 12 13  2  0
 12 14  1  0
 14 15  2  0
 15 16  1  0
 16 17  2  0
 17 18  1  0
 17 19  1  0
 19 20  2  0
 10 21  2  0
 21 22  1  0
 22 23  2  0
 23 24  1  0
  6 25  1  0
 25 26  1  0
 26 27  2  0
 26 28  2  0
 26  2  1  0
 23  8  1  0
 20 14  1  0
  1 29  1  0
  1 30  1  0
  1 31  1  0
  4 32  1  0
  4 33  1  0
  7 34  1  0
  7 35  1  0
  7 36  1  0
  9 37  1  0
 11 38  1  0
 15 39  1  0
 16 40  1  0
 19 41  1  0
 21 42  1  0
 22 43  1  0
 25 44  1  0
 25 45  1  0
M  END
>  <meeko>  (12)
{"is_sidechain": false}

>  <source_group>  (12)
BACE1-457

>  <source_system>  (12)
BACE1_verubecestat

>  <source_run>  (12)
alternate_457_seed2207_ex32

>  <source_seed>  (12)
2207

>  <vina_pose_rank>  (12)
12

>  <vina_affinity_kcal_mol>  (12)
-7.1559999999999997

>  <vina_rmsd_to_crystal_angstrom>  (12)
7.8005000000000004

$$$$
BACE1_verubecestat__alternate_457_seed2207_ex32__pose13
     RDKit          3D

 45 47  0  0  0  0  0  0  0  0999 V2000
   24.0410   11.2510   15.7650 C   0  0  0  0  0  0  0  0  0  0  0  0
   23.6340    9.8390   15.9050 N   0  0  0  0  0  0  0  0  0  0  0  0
   24.0930    9.0060   16.9490 C   0  0  0  0  0  0  0  0  0  0  0  0
   24.8250    9.6610   17.9020 N   0  0  0  0  0  0  0  0  0  0  0  0
   23.8330    7.7370   17.0270 N   0  0  0  0  0  0  0  0  0  0  0  0
   23.1310    7.0300   15.9570 C   0  0  2  0  0  0  0  0  0  0  0  0
   22.6400    5.7570   16.6520 C   0  0  0  0  0  0  0  0  0  0  0  0
   24.0660    6.6400   14.8220 C   0  0  0  0  0  0  0  0  0  0  0  0
   25.4470    6.7800   14.9470 C   0  0  0  0  0  0  0  0  0  0  0  0
   26.3160    6.4390   13.9360 C   0  0  0  0  0  0  0  0  0  0  0  0
   27.6810    6.6260   14.1910 N   0  0  0  0  0  0  0  0  0  0  0  0
   28.5570    5.7740   14.8400 C   0  0  0  0  0  0  0  0  0  0  0  0
   28.2370    4.7450   15.4220 O   0  0  0  0  0  0  0  0  0  0  0  0
   29.9870    6.1590   14.7670 C   0  0  0  0  0  0  0  0  0  0  0  0
   30.7570    5.7580   13.6890 C   0  0  0  0  0  0  0  0  0  0  0  0
   32.0860    6.1440   13.6730 C   0  0  0  0  0  0  0  0  0  0  0  0
   32.5930    6.9060   14.7080 C   0  0  0  0  0  0  0  0  0  0  0  0
   33.8780    7.2960   14.7410 F   0  0  0  0  0  0  0  0  0  0  0  0
   31.7500    7.2510   15.7400 C   0  0  0  0  0  0  0  0  0  0  0  0
   30.4580    6.8860   15.7860 N   0  0  0  0  0  0  0  0  0  0  0  0
   25.8360    5.9120   12.7440 C   0  0  0  0  0  0  0  0  0  0  0  0
   24.4670    5.7700   12.6010 C   0  0  0  0  0  0  0  0  0  0  0  0
   23.6050    6.1470   13.6120 C   0  0  0  0  0  0  0  0  0  0  0  0
   22.2650    6.0240   13.4350 F   0  0  0  0  0  0  0  0  0  0  0  0
   21.9040    7.8080   15.5380 C   0  0  0  0  0  0  0  0  0  0  0  0
   22.3620    9.3750   14.8420 S   0  0  0  0  0  0  0  0  0  0  0  0
   21.2500   10.2760   15.0830 O   0  0  0  0  0  0  0  0  0  0  0  0
   23.0120    9.2210   13.5780 O   0  0  0  0  0  0  0  0  0  0  0  0
   24.1693   11.6962   16.7626 H   0  0  0  0  0  0  0  0  0  0  0  0
   24.9915   11.3057   15.2140 H   0  0  0  0  0  0  0  0  0  0  0  0
   23.2655   11.8032   15.2140 H   0  0  0  0  0  0  0  0  0  0  0  0
   25.1890    9.1650   18.6710 H   0  0  0  0  0  0  0  0  0  0  0  0
   24.9880   10.6290   17.8200 H   0  0  0  0  0  0  0  0  0  0  0  0
   22.6918    5.8914   17.7425 H   0  0  0  0  0  0  0  0  0  0  0  0
   21.5998    5.5558   16.3564 H   0  0  0  0  0  0  0  0  0  0  0  0
   23.2757    4.9094   16.3564 H   0  0  0  0  0  0  0  0  0  0  0  0
   25.8569    7.1772   15.8873 H   0  0  0  0  0  0  0  0  0  0  0  0
   28.0660    7.4730   13.8670 H   0  0  0  0  0  0  0  0  0  0  0  0
   30.3285    5.1548   12.8750 H   0  0  0  0  0  0  0  0  0  0  0  0
   32.7370    5.8449   12.8383 H   0  0  0  0  0  0  0  0  0  0  0  0
   32.1535    7.8544   16.5665 H   0  0  0  0  0  0  0  0  0  0  0  0
   26.5235    5.6164   11.9378 H   0  0  0  0  0  0  0  0  0  0  0  0
   24.0596    5.3510   11.6691 H   0  0  0  0  0  0  0  0  0  0  0  0
   21.3478    7.2280   14.7868 H   0  0  0  0  0  0  0  0  0  0  0  0
   21.2774    7.9845   16.4247 H   0  0  0  0  0  0  0  0  0  0  0  0
  1  2  1  0
  2  3  1  0
  3  4  1  0
  3  5  2  0
  5  6  1  0
  6  7  1  1
  6  8  1  0
  8  9  2  0
  9 10  1  0
 10 11  1  0
 11 12  1  0
 12 13  2  0
 12 14  1  0
 14 15  2  0
 15 16  1  0
 16 17  2  0
 17 18  1  0
 17 19  1  0
 19 20  2  0
 10 21  2  0
 21 22  1  0
 22 23  2  0
 23 24  1  0
  6 25  1  0
 25 26  1  0
 26 27  2  0
 26 28  2  0
 26  2  1  0
 23  8  1  0
 20 14  1  0
  1 29  1  0
  1 30  1  0
  1 31  1  0
  4 32  1  0
  4 33  1  0
  7 34  1  0
  7 35  1  0
  7 36  1  0
  9 37  1  0
 11 38  1  0
 15 39  1  0
 16 40  1  0
 19 41  1  0
 21 42  1  0
 22 43  1  0
 25 44  1  0
 25 45  1  0
M  END
>  <meeko>  (13)
{"is_sidechain": false}

>  <source_group>  (13)
BACE1-457

>  <source_system>  (13)
BACE1_verubecestat

>  <source_run>  (13)
alternate_457_seed2207_ex32

>  <source_seed>  (13)
2207

>  <vina_pose_rank>  (13)
13

>  <vina_affinity_kcal_mol>  (13)
-7.0650000000000004

>  <vina_rmsd_to_crystal_angstrom>  (13)
8.0061

$$$$
BACE1_verubecestat__alternate_457_seed2207_ex32__pose14
     RDKit          3D

 45 47  0  0  0  0  0  0  0  0999 V2000
   23.8860   12.0350   15.1060 C   0  0  0  0  0  0  0  0  0  0  0  0
   23.3770   11.3050   16.2830 N   0  0  0  0  0  0  0  0  0  0  0  0
   24.1860   10.9680   17.3900 C   0  0  0  0  0  0  0  0  0  0  0  0
   25.4430   11.5100   17.3450 N   0  0  0  0  0  0  0  0  0  0  0  0
   23.7850   10.2340   18.3820 N   0  0  0  0  0  0  0  0  0  0  0  0
   22.4750    9.5830   18.3740 C   0  0  2  0  0  0  0  0  0  0  0  0
   22.2460    9.2580   19.8530 C   0  0  0  0  0  0  0  0  0  0  0  0
   22.4880    8.2850   17.5820 C   0  0  0  0  0  0  0  0  0  0  0  0
   23.6640    7.8010   17.0110 C   0  0  0  0  0  0  0  0  0  0  0  0
   23.7040    6.6320   16.2870 C   0  0  0  0  0  0  0  0  0  0  0  0
   24.9500    6.2560   15.7690 N   0  0  0  0  0  0  0  0  0  0  0  0
   25.4640    6.5030   14.5080 C   0  0  0  0  0  0  0  0  0  0  0  0
   24.8400    6.9940   13.5770 O   0  0  0  0  0  0  0  0  0  0  0  0
   26.8960    6.1620   14.3300 C   0  0  0  0  0  0  0  0  0  0  0  0
   27.5560    6.5310   13.1710 C   0  0  0  0  0  0  0  0  0  0  0  0
   28.8910    6.1860   13.0570 C   0  0  0  0  0  0  0  0  0  0  0  0
   29.5140    5.5000   14.0820 C   0  0  0  0  0  0  0  0  0  0  0  0
   30.8060    5.1360   14.0130 F   0  0  0  0  0  0  0  0  0  0  0  0
   28.7720    5.1720   15.1940 C   0  0  0  0  0  0  0  0  0  0  0  0
   27.4740    5.4880   15.3310 N   0  0  0  0  0  0  0  0  0  0  0  0
   22.5550    5.8700   16.1170 C   0  0  0  0  0  0  0  0  0  0  0  0
   21.3770    6.3370   16.6740 C   0  0  0  0  0  0  0  0  0  0  0  0
   21.3450    7.5280   17.3710 C   0  0  0  0  0  0  0  0  0  0  0  0
   20.1710    7.9790   17.8820 F   0  0  0  0  0  0  0  0  0  0  0  0
   21.4060   10.5720   17.9670 C   0  0  0  0  0  0  0  0  0  0  0  0
   21.6650   11.1250   16.3000 S   0  0  0  0  0  0  0  0  0  0  0  0
   21.0920   12.4560   16.2110 O   0  0  0  0  0  0  0  0  0  0  0  0
   21.4210   10.0800   15.3550 O   0  0  0  0  0  0  0  0  0  0  0  0
   24.4856   12.8950   15.4390 H   0  0  0  0  0  0  0  0  0  0  0  0
   24.5126   11.3634   14.5008 H   0  0  0  0  0  0  0  0  0  0  0  0
   23.0392   12.3908   14.5008 H   0  0  0  0  0  0  0  0  0  0  0  0
   26.0820   11.3330   18.0730 H   0  0  0  0  0  0  0  0  0  0  0  0
   25.7070   12.0780   16.5850 H   0  0  0  0  0  0  0  0  0  0  0  0
   22.7681    9.9989   20.4763 H   0  0  0  0  0  0  0  0  0  0  0  0
   21.1685    9.2882   20.0725 H   0  0  0  0  0  0  0  0  0  0  0  0
   22.6369    8.2535   20.0725 H   0  0  0  0  0  0  0  0  0  0  0  0
   24.5932    8.3744   17.1441 H   0  0  0  0  0  0  0  0  0  0  0  0
   25.5350    5.7530   16.3800 H   0  0  0  0  0  0  0  0  0  0  0  0
   27.0382    7.0786   12.3697 H   0  0  0  0  0  0  0  0  0  0  0  0
   29.4552    6.4572   12.1525 H   0  0  0  0  0  0  0  0  0  0  0  0
   29.2662    4.6245   16.0100 H   0  0  0  0  0  0  0  0  0  0  0  0
   22.5805    4.9238   15.5565 H   0  0  0  0  0  0  0  0  0  0  0  0
   20.4533    5.7507   16.5596 H   0  0  0  0  0  0  0  0  0  0  0  0
   20.4206   10.0883   18.0380 H   0  0  0  0  0  0  0  0  0  0  0  0
   21.4537   11.4412   18.6395 H   0  0  0  0  0  0  0  0  0  0  0  0
  1  2  1  0
  2  3  1  0
  3  4  1  0
  3  5  2  0
  5  6  1  0
  6  7  1  1
  6  8  1  0
  8  9  2  0
  9 10  1  0
 10 11  1  0
 11 12  1  0
 12 13  2  0
 12 14  1  0
 14 15  2  0
 15 16  1  0
 16 17  2  0
 17 18  1  0
 17 19  1  0
 19 20  2  0
 10 21  2  0
 21 22  1  0
 22 23  2  0
 23 24  1  0
  6 25  1  0
 25 26  1  0
 26 27  2  0
 26 28  2  0
 26  2  1  0
 23  8  1  0
 20 14  1  0
  1 29  1  0
  1 30  1  0
  1 31  1  0
  4 32  1  0
  4 33  1  0
  7 34  1  0
  7 35  1  0
  7 36  1  0
  9 37  1  0
 11 38  1  0
 15 39  1  0
 16 40  1  0
 19 41  1  0
 21 42  1  0
 22 43  1  0
 25 44  1  0
 25 45  1  0
M  END
>  <meeko>  (14)
{"is_sidechain": false}

>  <source_group>  (14)
BACE1-457

>  <source_system>  (14)
BACE1_verubecestat

>  <source_run>  (14)
alternate_457_seed2207_ex32

>  <source_seed>  (14)
2207

>  <vina_pose_rank>  (14)
14

>  <vina_affinity_kcal_mol>  (14)
-6.9509999999999996

>  <vina_rmsd_to_crystal_angstrom>  (14)
7.1919000000000004

$$$$
BACE1_verubecestat__alternate_457_seed2207_ex32__pose15
     RDKit          3D

 45 47  0  0  0  0  0  0  0  0999 V2000
   19.7870    9.4250   14.0470 C   0  0  0  0  0  0  0  0  0  0  0  0
   21.0650    8.9670   14.6260 N   0  0  0  0  0  0  0  0  0  0  0  0
   21.6500    7.7200   14.3120 C   0  0  0  0  0  0  0  0  0  0  0  0
   21.0080    7.0410   13.3120 N   0  0  0  0  0  0  0  0  0  0  0  0
   22.7140    7.2550   14.8920 N   0  0  0  0  0  0  0  0  0  0  0  0
   23.3350    7.9430   16.0220 C   0  0  2  0  0  0  0  0  0  0  0  0
   24.7440    7.3430   16.0570 C   0  0  0  0  0  0  0  0  0  0  0  0
   22.6360    7.6290   17.3360 C   0  0  0  0  0  0  0  0  0  0  0  0
   22.8430    8.4160   18.4670 C   0  0  0  0  0  0  0  0  0  0  0  0
   22.2260    8.1540   19.6700 C   0  0  0  0  0  0  0  0  0  0  0  0
   22.5190    9.0240   20.7280 N   0  0  0  0  0  0  0  0  0  0  0  0
   22.3710   10.3990   20.7740 C   0  0  0  0  0  0  0  0  0  0  0  0
   22.0700   11.1070   19.8220 O   0  0  0  0  0  0  0  0  0  0  0  0
   22.5670   11.0130   22.1100 C   0  0  0  0  0  0  0  0  0  0  0  0
   22.6750   12.3870   22.2290 C   0  0  0  0  0  0  0  0  0  0  0  0
   22.8600   12.9060   23.4990 C   0  0  0  0  0  0  0  0  0  0  0  0
   22.9260   12.0570   24.5860 C   0  0  0  0  0  0  0  0  0  0  0  0
   23.1140   12.5140   25.8360 F   0  0  0  0  0  0  0  0  0  0  0  0
   22.8140   10.7030   24.3650 C   0  0  0  0  0  0  0  0  0  0  0  0
   22.6400   10.1700   23.1450 N   0  0  0  0  0  0  0  0  0  0  0  0
   21.3420    7.0890   19.7890 C   0  0  0  0  0  0  0  0  0  0  0  0
   21.1260    6.2960   18.6760 C   0  0  0  0  0  0  0  0  0  0  0  0
   21.7770    6.5510   17.4860 C   0  0  0  0  0  0  0  0  0  0  0  0
   21.5710    5.7390   16.4170 F   0  0  0  0  0  0  0  0  0  0  0  0
   23.4890    9.4160   15.7130 C   0  0  0  0  0  0  0  0  0  0  0  0
   21.9010   10.1830   15.5130 S   0  0  0  0  0  0  0  0  0  0  0  0
   22.0950   11.3100   14.6190 O   0  0  0  0  0  0  0  0  0  0  0  0
   21.1890   10.2530   16.7510 O   0  0  0  0  0  0  0  0  0  0  0  0
   19.0865    9.6760   14.8571 H   0  0  0  0  0  0  0  0  0  0  0  0
   19.9640   10.3156   13.4262 H   0  0  0  0  0  0  0  0  0  0  0  0
   19.3580    8.6247   13.4262 H   0  0  0  0  0  0  0  0  0  0  0  0
   21.3410    6.1610   13.0210 H   0  0  0  0  0  0  0  0  0  0  0  0
   20.2130    7.4330   12.8820 H   0  0  0  0  0  0  0  0  0  0  0  0
   25.0595    7.2087   17.1022 H   0  0  0  0  0  0  0  0  0  0  0  0
   24.7403    6.3684   15.5470 H   0  0  0  0  0  0  0  0  0  0  0  0
   25.4441    8.0211   15.5470 H   0  0  0  0  0  0  0  0  0  0  0  0
   23.5235    9.2773   18.3965 H   0  0  0  0  0  0  0  0  0  0  0  0
   22.8750    8.6030   21.5440 H   0  0  0  0  0  0  0  0  0  0  0  0
   22.6161   13.0425   21.3476 H   0  0  0  0  0  0  0  0  0  0  0  0
   22.9542   13.9926   23.6419 H   0  0  0  0  0  0  0  0  0  0  0  0
   22.8697   10.0250   25.2294 H   0  0  0  0  0  0  0  0  0  0  0  0
   20.8290    6.8823   20.7398 H   0  0  0  0  0  0  0  0  0  0  0  0
   20.4255    5.4503   18.7404 H   0  0  0  0  0  0  0  0  0  0  0  0
   24.0246    9.9046   16.5402 H   0  0  0  0  0  0  0  0  0  0  0  0
   24.0550    9.5240   14.7760 H   0  0  0  0  0  0  0  0  0  0  0  0
  1  2  1  0
  2  3  1  0
  3  4  1  0
  3  5  2  0
  5  6  1  0
  6  7  1  1
  6  8  1  0
  8  9  2  0
  9 10  1  0
 10 11  1  0
 11 12  1  0
 12 13  2  0
 12 14  1  0
 14 15  2  0
 15 16  1  0
 16 17  2  0
 17 18  1  0
 17 19  1  0
 19 20  2  0
 10 21  2  0
 21 22  1  0
 22 23  2  0
 23 24  1  0
  6 25  1  0
 25 26  1  0
 26 27  2  0
 26 28  2  0
 26  2  1  0
 23  8  1  0
 20 14  1  0
  1 29  1  0
  1 30  1  0
  1 31  1  0
  4 32  1  0
  4 33  1  0
  7 34  1  0
  7 35  1  0
  7 36  1  0
  9 37  1  0
 11 38  1  0
 15 39  1  0
 16 40  1  0
 19 41  1  0
 21 42  1  0
 22 43  1  0
 25 44  1  0
 25 45  1  0
M  END
>  <meeko>  (15)
{"is_sidechain": false}

>  <source_group>  (15)
BACE1-457

>  <source_system>  (15)
BACE1_verubecestat

>  <source_run>  (15)
alternate_457_seed2207_ex32

>  <source_seed>  (15)
2207

>  <vina_pose_rank>  (15)
15

>  <vina_affinity_kcal_mol>  (15)
-6.9459999999999997

>  <vina_rmsd_to_crystal_angstrom>  (15)
7.4378000000000002

$$$$
BACE1_verubecestat__alternate_457_seed2207_ex32__pose16
     RDKit          3D

 45 47  0  0  0  0  0  0  0  0999 V2000
   26.5430   14.2850   18.5560 C   0  0  0  0  0  0  0  0  0  0  0  0
   26.7700   14.0180   19.9900 N   0  0  0  0  0  0  0  0  0  0  0  0
   27.3130   12.8060   20.4710 C   0  0  0  0  0  0  0  0  0  0  0  0
   27.7510   11.9640   19.4840 N   0  0  0  0  0  0  0  0  0  0  0  0
   27.4190   12.5110   21.7300 N   0  0  0  0  0  0  0  0  0  0  0  0
   26.8620   13.3750   22.7700 C   0  0  2  0  0  0  0  0  0  0  0  0
   27.6070   12.9200   24.0280 C   0  0  0  0  0  0  0  0  0  0  0  0
   25.3730   13.1420   22.9690 C   0  0  0  0  0  0  0  0  0  0  0  0
   24.6740   12.2320   22.1770 C   0  0  0  0  0  0  0  0  0  0  0  0
   23.3260   12.0030   22.3330 C   0  0  0  0  0  0  0  0  0  0  0  0
   22.7460   11.0600   21.4740 N   0  0  0  0  0  0  0  0  0  0  0  0
   22.3070   11.2410   20.1740 C   0  0  0  0  0  0  0  0  0  0  0  0
   22.2400   12.3190   19.5970 O   0  0  0  0  0  0  0  0  0  0  0  0
   21.9340   10.0000   19.4530 C   0  0  0  0  0  0  0  0  0  0  0  0
   21.4380   10.0730   18.1630 C   0  0  0  0  0  0  0  0  0  0  0  0
   21.1040    8.8850   17.5380 C   0  0  0  0  0  0  0  0  0  0  0  0
   21.2740    7.6860   18.2040 C   0  0  0  0  0  0  0  0  0  0  0  0
   20.9550    6.5080   17.6420 F   0  0  0  0  0  0  0  0  0  0  0  0
   21.7690    7.7160   19.4880 C   0  0  0  0  0  0  0  0  0  0  0  0
   22.0970    8.8540   20.1220 N   0  0  0  0  0  0  0  0  0  0  0  0
   22.6090   12.6680   23.3190 C   0  0  0  0  0  0  0  0  0  0  0  0
   23.2860   13.5780   24.1130 C   0  0  0  0  0  0  0  0  0  0  0  0
   24.6320   13.8210   23.9230 C   0  0  0  0  0  0  0  0  0  0  0  0
   25.2660   14.7400   24.6960 F   0  0  0  0  0  0  0  0  0  0  0  0
   27.2580   14.8130   22.5170 C   0  0  0  0  0  0  0  0  0  0  0  0
   26.5550   15.3980   20.9960 S   0  0  0  0  0  0  0  0  0  0  0  0
   27.4430   16.4340   20.5010 O   0  0  0  0  0  0  0  0  0  0  0  0
   25.1350   15.5350   21.0890 O   0  0  0  0  0  0  0  0  0  0  0  0
   25.8341   15.1189   18.4460 H   0  0  0  0  0  0  0  0  0  0  0  0
   27.4972   14.5493   18.0767 H   0  0  0  0  0  0  0  0  0  0  0  0
   26.1286   13.3858   18.0767 H   0  0  0  0  0  0  0  0  0  0  0  0
   28.1460   11.0930   19.7190 H   0  0  0  0  0  0  0  0  0  0  0  0
   27.6710   12.2280   18.5390 H   0  0  0  0  0  0  0  0  0  0  0  0
   27.0582   13.2551   24.9205 H   0  0  0  0  0  0  0  0  0  0  0  0
   27.6808   11.8225   24.0336 H   0  0  0  0  0  0  0  0  0  0  0  0
   28.6171   13.3555   24.0336 H   0  0  0  0  0  0  0  0  0  0  0  0
   25.2196   11.6772   21.3995 H   0  0  0  0  0  0  0  0  0  0  0  0
   22.6370   10.1540   21.8420 H   0  0  0  0  0  0  0  0  0  0  0  0
   21.3140   11.0400   17.6535 H   0  0  0  0  0  0  0  0  0  0  0  0
   20.7040    8.8946   16.5133 H   0  0  0  0  0  0  0  0  0  0  0  0
   21.9024    6.7627   20.0204 H   0  0  0  0  0  0  0  0  0  0  0  0
   21.5355   12.4775   23.4648 H   0  0  0  0  0  0  0  0  0  0  0  0
   22.7444   14.1147   24.9059 H   0  0  0  0  0  0  0  0  0  0  0  0
   26.8962   15.4386   23.3463 H   0  0  0  0  0  0  0  0  0  0  0  0
   28.3542   14.8710   22.4457 H   0  0  0  0  0  0  0  0  0  0  0  0
  1  2  1  0
  2  3  1  0
  3  4  1  0
  3  5  2  0
  5  6  1  0
  6  7  1  1
  6  8  1  0
  8  9  2  0
  9 10  1  0
 10 11  1  0
 11 12  1  0
 12 13  2  0
 12 14  1  0
 14 15  2  0
 15 16  1  0
 16 17  2  0
 17 18  1  0
 17 19  1  0
 19 20  2  0
 10 21  2  0
 21 22  1  0
 22 23  2  0
 23 24  1  0
  6 25  1  0
 25 26  1  0
 26 27  2  0
 26 28  2  0
 26  2  1  0
 23  8  1  0
 20 14  1  0
  1 29  1  0
  1 30  1  0
  1 31  1  0
  4 32  1  0
  4 33  1  0
  7 34  1  0
  7 35  1  0
  7 36  1  0
  9 37  1  0
 11 38  1  0
 15 39  1  0
 16 40  1  0
 19 41  1  0
 21 42  1  0
 22 43  1  0
 25 44  1  0
 25 45  1  0
M  END
>  <meeko>  (16)
{"is_sidechain": false}

>  <source_group>  (16)
BACE1-457

>  <source_system>  (16)
BACE1_verubecestat

>  <source_run>  (16)
alternate_457_seed2207_ex32

>  <source_seed>  (16)
2207

>  <vina_pose_rank>  (16)
16

>  <vina_affinity_kcal_mol>  (16)
-6.8710000000000004

>  <vina_rmsd_to_crystal_angstrom>  (16)
7.2239000000000004

$$$$
BACE1_verubecestat__alternate_457_seed2207_ex32__pose17
     RDKit          3D

 45 47  0  0  0  0  0  0  0  0999 V2000
   19.7900    7.0670   17.9390 C   0  0  0  0  0  0  0  0  0  0  0  0
   21.1220    7.6520   17.6900 N   0  0  0  0  0  0  0  0  0  0  0  0
   22.2980    7.1850   18.3180 C   0  0  0  0  0  0  0  0  0  0  0  0
   22.1180    6.0470   19.0590 N   0  0  0  0  0  0  0  0  0  0  0  0
   23.4570    7.7540   18.1950 N   0  0  0  0  0  0  0  0  0  0  0  0
   23.6190    9.0190   17.4800 C   0  0  2  0  0  0  0  0  0  0  0  0
   25.1210    9.0540   17.1800 C   0  0  0  0  0  0  0  0  0  0  0  0
   23.2640   10.2150   18.3490 C   0  0  0  0  0  0  0  0  0  0  0  0
   22.9090   10.0530   19.6870 C   0  0  0  0  0  0  0  0  0  0  0  0
   22.5800   11.1170   20.4960 C   0  0  0  0  0  0  0  0  0  0  0  0
   22.2450   10.8170   21.8230 N   0  0  0  0  0  0  0  0  0  0  0  0
   22.9410   11.1330   22.9750 C   0  0  0  0  0  0  0  0  0  0  0  0
   24.0590   11.6310   23.0090 O   0  0  0  0  0  0  0  0  0  0  0  0
   22.2220   10.8630   24.2440 C   0  0  0  0  0  0  0  0  0  0  0  0
   21.9800   11.8940   25.1350 C   0  0  0  0  0  0  0  0  0  0  0  0
   21.3070   11.5850   26.3030 C   0  0  0  0  0  0  0  0  0  0  0  0
   20.9030   10.2850   26.5410 C   0  0  0  0  0  0  0  0  0  0  0  0
   20.2550    9.9360   27.6660 F   0  0  0  0  0  0  0  0  0  0  0  0
   21.1960    9.3270   25.5980 C   0  0  0  0  0  0  0  0  0  0  0  0
   21.8520    9.5960   24.4570 N   0  0  0  0  0  0  0  0  0  0  0  0
   22.6140   12.4140   20.0000 C   0  0  0  0  0  0  0  0  0  0  0  0
   22.9600   12.5940   18.6730 C   0  0  0  0  0  0  0  0  0  0  0  0
   23.2570   11.5140   17.8640 C   0  0  0  0  0  0  0  0  0  0  0  0
   23.5650   11.7160   16.5570 F   0  0  0  0  0  0  0  0  0  0  0  0
   22.9030    8.9590   16.1490 C   0  0  0  0  0  0  0  0  0  0  0  0
   21.1540    8.7750   16.3850 S   0  0  0  0  0  0  0  0  0  0  0  0
   20.6470    8.0860   15.2120 O   0  0  0  0  0  0  0  0  0  0  0  0
   20.5690    9.9570   16.9380 O   0  0  0  0  0  0  0  0  0  0  0  0
   19.6193    6.9920   19.0231 H   0  0  0  0  0  0  0  0  0  0  0  0
   19.0178    7.7088   17.4897 H   0  0  0  0  0  0  0  0  0  0  0  0
   19.7402    6.0642   17.4897 H   0  0  0  0  0  0  0  0  0  0  0  0
   22.8800    5.6450   19.5350 H   0  0  0  0  0  0  0  0  0  0  0  0
   21.2270    5.6320   19.1150 H   0  0  0  0  0  0  0  0  0  0  0  0
   25.6835    9.0671   18.1252 H   0  0  0  0  0  0  0  0  0  0  0  0
   25.3999    8.1621   16.5997 H   0  0  0  0  0  0  0  0  0  0  0  0
   25.3580    9.9579   16.5997 H   0  0  0  0  0  0  0  0  0  0  0  0
   22.8911    9.0385   20.1118 H   0  0  0  0  0  0  0  0  0  0  0  0
   21.4060   10.3170   21.9510 H   0  0  0  0  0  0  0  0  0  0  0  0
   22.3107   12.9213   24.9220 H   0  0  0  0  0  0  0  0  0  0  0  0
   21.0937   12.3723   27.0410 H   0  0  0  0  0  0  0  0  0  0  0  0
   20.8779    8.2912   25.7874 H   0  0  0  0  0  0  0  0  0  0  0  0
   22.3728   13.2728   20.6437 H   0  0  0  0  0  0  0  0  0  0  0  0
   22.9993   13.6111   18.2559 H   0  0  0  0  0  0  0  0  0  0  0  0
   23.0965    9.8881   15.5928 H   0  0  0  0  0  0  0  0  0  0  0  0
   23.2768    8.0916   15.5853 H   0  0  0  0  0  0  0  0  0  0  0  0
  1  2  1  0
  2  3  1  0
  3  4  1  0
  3  5  2  0
  5  6  1  0
  6  7  1  6
  6  8  1  0
  8  9  2  0
  9 10  1  0
 10 11  1  0
 11 12  1  0
 12 13  2  0
 12 14  1  0
 14 15  2  0
 15 16  1  0
 16 17  2  0
 17 18  1  0
 17 19  1  0
 19 20  2  0
 10 21  2  0
 21 22  1  0
 22 23  2  0
 23 24  1  0
  6 25  1  0
 25 26  1  0
 26 27  2  0
 26 28  2  0
 26  2  1  0
 23  8  1  0
 20 14  1  0
  1 29  1  0
  1 30  1  0
  1 31  1  0
  4 32  1  0
  4 33  1  0
  7 34  1  0
  7 35  1  0
  7 36  1  0
  9 37  1  0
 11 38  1  0
 15 39  1  0
 16 40  1  0
 19 41  1  0
 21 42  1  0
 22 43  1  0
 25 44  1  0
 25 45  1  0
M  END
>  <meeko>  (17)
{"is_sidechain": false}

>  <source_group>  (17)
BACE1-457

>  <source_system>  (17)
BACE1_verubecestat

>  <source_run>  (17)
alternate_457_seed2207_ex32

>  <source_seed>  (17)
2207

>  <vina_pose_rank>  (17)
17

>  <vina_affinity_kcal_mol>  (17)
-6.8630000000000004

>  <vina_rmsd_to_crystal_angstrom>  (17)
6.7954999999999997

$$$$
BACE1_verubecestat__alternate_457_seed2207_ex32__pose18
     RDKit          3D

 45 47  0  0  0  0  0  0  0  0999 V2000
   24.4030    8.5150   16.9810 C   0  0  0  0  0  0  0  0  0  0  0  0
   23.6240    9.6840   17.4330 N   0  0  0  0  0  0  0  0  0  0  0  0
   23.7810   10.9750   16.8810 C   0  0  0  0  0  0  0  0  0  0  0  0
   24.6070   11.0150   15.7890 N   0  0  0  0  0  0  0  0  0  0  0  0
   23.1860   12.0330   17.3380 N   0  0  0  0  0  0  0  0  0  0  0  0
   22.3840   11.9960   18.5590 C   0  0  2  0  0  0  0  0  0  0  0  0
   21.5290   13.2620   18.4470 C   0  0  0  0  0  0  0  0  0  0  0  0
   23.2430   12.0930   19.8100 C   0  0  0  0  0  0  0  0  0  0  0  0
   22.7330   11.7520   21.0620 C   0  0  0  0  0  0  0  0  0  0  0  0
   23.4870   11.8330   22.2110 C   0  0  0  0  0  0  0  0  0  0  0  0
   22.8550   11.4590   23.4040 N   0  0  0  0  0  0  0  0  0  0  0  0
   22.2680   12.2740   24.3550 C   0  0  0  0  0  0  0  0  0  0  0  0
   22.3220   13.4970   24.3650 O   0  0  0  0  0  0  0  0  0  0  0  0
   21.4950   11.5670   25.4050 C   0  0  0  0  0  0  0  0  0  0  0  0
   21.6240   10.1970   25.5540 C   0  0  0  0  0  0  0  0  0  0  0  0
   20.8770    9.5890   26.5470 C   0  0  0  0  0  0  0  0  0  0  0  0
   20.0460   10.3500   27.3460 C   0  0  0  0  0  0  0  0  0  0  0  0
   19.2950    9.8020   28.3170 F   0  0  0  0  0  0  0  0  0  0  0  0
   19.9810   11.7050   27.1170 C   0  0  0  0  0  0  0  0  0  0  0  0
   20.6880   12.3230   26.1570 N   0  0  0  0  0  0  0  0  0  0  0  0
   24.8130   12.2430   22.1540 C   0  0  0  0  0  0  0  0  0  0  0  0
   25.3350   12.5890   20.9200 C   0  0  0  0  0  0  0  0  0  0  0  0
   24.5570   12.5330   19.7810 C   0  0  0  0  0  0  0  0  0  0  0  0
   25.0850   12.9060   18.5860 F   0  0  0  0  0  0  0  0  0  0  0  0
   21.4360   10.8170   18.5220 C   0  0  0  0  0  0  0  0  0  0  0  0
   22.3380    9.2880   18.5070 S   0  0  0  0  0  0  0  0  0  0  0  0
   21.4960    8.3180   17.8300 O   0  0  0  0  0  0  0  0  0  0  0  0
   22.9950    9.0510   19.7550 O   0  0  0  0  0  0  0  0  0  0  0  0
   24.7727    7.9602   17.8559 H   0  0  0  0  0  0  0  0  0  0  0  0
   23.7611    7.8587   16.3751 H   0  0  0  0  0  0  0  0  0  0  0  0
   25.2559    8.8548   16.3751 H   0  0  0  0  0  0  0  0  0  0  0  0
   24.7790   11.8700   15.3340 H   0  0  0  0  0  0  0  0  0  0  0  0
   25.0280   10.1880   15.4590 H   0  0  0  0  0  0  0  0  0  0  0  0
   21.2819   13.6279   19.4545 H   0  0  0  0  0  0  0  0  0  0  0  0
   22.0899   14.0363   17.9030 H   0  0  0  0  0  0  0  0  0  0  0  0
   20.6012   13.0310   17.9030 H   0  0  0  0  0  0  0  0  0  0  0  0
   21.6913   11.4060   21.1343 H   0  0  0  0  0  0  0  0  0  0  0  0
   22.8250   10.4920   23.5890 H   0  0  0  0  0  0  0  0  0  0  0  0
   22.2954    9.6134   24.9070 H   0  0  0  0  0  0  0  0  0  0  0  0
   20.9446    8.5018   26.7000 H   0  0  0  0  0  0  0  0  0  0  0  0
   19.3177   12.3116   27.7510 H   0  0  0  0  0  0  0  0  0  0  0  0
   25.4301   12.2912   23.0633 H   0  0  0  0  0  0  0  0  0  0  0  0
   26.3836   12.9129   20.8457 H   0  0  0  0  0  0  0  0  0  0  0  0
   20.7887   10.8459   19.4109 H   0  0  0  0  0  0  0  0  0  0  0  0
   20.8294   10.8791   17.6065 H   0  0  0  0  0  0  0  0  0  0  0  0
  1  2  1  0
  2  3  1  0
  3  4  1  0
  3  5  2  0
  5  6  1  0
  6  7  1  6
  6  8  1  0
  8  9  2  0
  9 10  1  0
 10 11  1  0
 11 12  1  0
 12 13  2  0
 12 14  1  0
 14 15  2  0
 15 16  1  0
 16 17  2  0
 17 18  1  0
 17 19  1  0
 19 20  2  0
 10 21  2  0
 21 22  1  0
 22 23  2  0
 23 24  1  0
  6 25  1  0
 25 26  1  0
 26 27  2  0
 26 28  2  0
 26  2  1  0
 23  8  1  0
 20 14  1  0
  1 29  1  0
  1 30  1  0
  1 31  1  0
  4 32  1  0
  4 33  1  0
  7 34  1  0
  7 35  1  0
  7 36  1  0
  9 37  1  0
 11 38  1  0
 15 39  1  0
 16 40  1  0
 19 41  1  0
 21 42  1  0
 22 43  1  0
 25 44  1  0
 25 45  1  0
M  END
>  <meeko>  (18)
{"is_sidechain": false}

>  <source_group>  (18)
BACE1-457

>  <source_system>  (18)
BACE1_verubecestat

>  <source_run>  (18)
alternate_457_seed2207_ex32

>  <source_seed>  (18)
2207

>  <vina_pose_rank>  (18)
18

>  <vina_affinity_kcal_mol>  (18)
-6.8540000000000001

>  <vina_rmsd_to_crystal_angstrom>  (18)
7.2137000000000002

$$$$
BACE1_verubecestat__alternate_457_seed2207_ex32__pose19
     RDKit          3D

 45 47  0  0  0  0  0  0  0  0999 V2000
   27.3840   11.4890   18.9330 C   0  0  0  0  0  0  0  0  0  0  0  0
   26.1720   11.8430   19.6980 N   0  0  0  0  0  0  0  0  0  0  0  0
   25.6880   11.0690   20.7760 C   0  0  0  0  0  0  0  0  0  0  0  0
   26.5240   10.0500   21.1470 N   0  0  0  0  0  0  0  0  0  0  0  0
   24.5690   11.3040   21.3880 N   0  0  0  0  0  0  0  0  0  0  0  0
   23.6410   12.3350   20.9240 C   0  0  2  0  0  0  0  0  0  0  0  0
   22.7580   12.5790   22.1510 C   0  0  0  0  0  0  0  0  0  0  0  0
   22.7680   11.8430   19.7800 C   0  0  0  0  0  0  0  0  0  0  0  0
   22.6620   10.4840   19.4880 C   0  0  0  0  0  0  0  0  0  0  0  0
   21.8820   10.0110   18.4580 C   0  0  0  0  0  0  0  0  0  0  0  0
   21.8610    8.6230   18.2720 N   0  0  0  0  0  0  0  0  0  0  0  0
   22.8400    7.8170   17.7180 C   0  0  0  0  0  0  0  0  0  0  0  0
   23.8570    8.2210   17.1690 O   0  0  0  0  0  0  0  0  0  0  0  0
   22.6110    6.3580   17.8530 C   0  0  0  0  0  0  0  0  0  0  0  0
   23.1130    5.4880   16.9010 C   0  0  0  0  0  0  0  0  0  0  0  0
   22.8690    4.1380   17.0760 C   0  0  0  0  0  0  0  0  0  0  0  0
   22.1500    3.7060   18.1740 C   0  0  0  0  0  0  0  0  0  0  0  0
   21.8800    2.4060   18.3810 F   0  0  0  0  0  0  0  0  0  0  0  0
   21.6870    4.6480   19.0640 C   0  0  0  0  0  0  0  0  0  0  0  0
   21.9030    5.9660   18.9180 N   0  0  0  0  0  0  0  0  0  0  0  0
   21.1430   10.8890   17.6750 C   0  0  0  0  0  0  0  0  0  0  0  0
   21.2380   12.2420   17.9480 C   0  0  0  0  0  0  0  0  0  0  0  0
   22.0500   12.7050   18.9650 C   0  0  0  0  0  0  0  0  0  0  0  0
   22.1490   14.0390   19.1940 F   0  0  0  0  0  0  0  0  0  0  0  0
   24.3880   13.6220   20.6520 C   0  0  0  0  0  0  0  0  0  0  0  0
   25.5500   13.4050   19.3270 S   0  0  0  0  0  0  0  0  0  0  0  0
   26.6200   14.3590   19.5540 O   0  0  0  0  0  0  0  0  0  0  0  0
   24.8900   13.2210   18.0720 O   0  0  0  0  0  0  0  0  0  0  0  0
   28.2009   11.2504   19.6300 H   0  0  0  0  0  0  0  0  0  0  0  0
   27.1753   10.6143   18.2995 H   0  0  0  0  0  0  0  0  0  0  0  0
   27.6789   12.3385   18.2995 H   0  0  0  0  0  0  0  0  0  0  0  0
   26.2740    9.4540   21.8900 H   0  0  0  0  0  0  0  0  0  0  0  0
   27.3750    9.9120   20.6710 H   0  0  0  0  0  0  0  0  0  0  0  0
   23.3476   12.4161   23.0653 H   0  0  0  0  0  0  0  0  0  0  0  0
   22.3853   13.6138   22.1346 H   0  0  0  0  0  0  0  0  0  0  0  0
   21.9068   11.8824   22.1346 H   0  0  0  0  0  0  0  0  0  0  0  0
   23.2219    9.7641   20.1030 H   0  0  0  0  0  0  0  0  0  0  0  0
   21.0460    8.1610   18.5760 H   0  0  0  0  0  0  0  0  0  0  0  0
   23.6851    5.8567   16.0368 H   0  0  0  0  0  0  0  0  0  0  0  0
   23.2464    3.4099   16.3429 H   0  0  0  0  0  0  0  0  0  0  0  0
   21.1123    4.3053   19.9371 H   0  0  0  0  0  0  0  0  0  0  0  0
   20.5011   10.5193   16.8618 H   0  0  0  0  0  0  0  0  0  0  0  0
   20.6591   12.9587   17.3470 H   0  0  0  0  0  0  0  0  0  0  0  0
   23.6677   14.4062   20.3758 H   0  0  0  0  0  0  0  0  0  0  0  0
   24.9371   13.9110   21.5603 H   0  0  0  0  0  0  0  0  0  0  0  0
  1  2  1  0
  2  3  1  0
  3  4  1  0
  3  5  2  0
  5  6  1  0
  6  7  1  1
  6  8  1  0
  8  9  2  0
  9 10  1  0
 10 11  1  0
 11 12  1  0
 12 13  2  0
 12 14  1  0
 14 15  2  0
 15 16  1  0
 16 17  2  0
 17 18  1  0
 17 19  1  0
 19 20  2  0
 10 21  2  0
 21 22  1  0
 22 23  2  0
 23 24  1  0
  6 25  1  0
 25 26  1  0
 26 27  2  0
 26 28  2  0
 26  2  1  0
 23  8  1  0
 20 14  1  0
  1 29  1  0
  1 30  1  0
  1 31  1  0
  4 32  1  0
  4 33  1  0
  7 34  1  0
  7 35  1  0
  7 36  1  0
  9 37  1  0
 11 38  1  0
 15 39  1  0
 16 40  1  0
 19 41  1  0
 21 42  1  0
 22 43  1  0
 25 44  1  0
 25 45  1  0
M  END
>  <meeko>  (19)
{"is_sidechain": false}

>  <source_group>  (19)
BACE1-457

>  <source_system>  (19)
BACE1_verubecestat

>  <source_run>  (19)
alternate_457_seed2207_ex32

>  <source_seed>  (19)
2207

>  <vina_pose_rank>  (19)
19

>  <vina_affinity_kcal_mol>  (19)
-6.8289999999999997

>  <vina_rmsd_to_crystal_angstrom>  (19)
6.5674999999999999

$$$$
BACE1_verubecestat__alternate_457_seed2207_ex32__pose20
     RDKit          3D

 45 47  0  0  0  0  0  0  0  0999 V2000
   22.5120    9.7030   12.4830 C   0  0  0  0  0  0  0  0  0  0  0  0
   22.1830    9.5040   13.9090 N   0  0  0  0  0  0  0  0  0  0  0  0
   22.9570   10.0440   14.9600 C   0  0  0  0  0  0  0  0  0  0  0  0
   23.9470   10.8920   14.5420 N   0  0  0  0  0  0  0  0  0  0  0  0
   22.7470    9.7900   16.2150 N   0  0  0  0  0  0  0  0  0  0  0  0
   21.7490    8.8110   16.6440 C   0  0  2  0  0  0  0  0  0  0  0  0
   21.5150    9.1800   18.1110 C   0  0  0  0  0  0  0  0  0  0  0  0
   22.2810    7.3870   16.5740 C   0  0  0  0  0  0  0  0  0  0  0  0
   23.5510    7.1170   16.0680 C   0  0  0  0  0  0  0  0  0  0  0  0
   24.0560    5.8390   15.9900 C   0  0  0  0  0  0  0  0  0  0  0  0
   25.3470    5.7050   15.4630 N   0  0  0  0  0  0  0  0  0  0  0  0
   25.7840    5.9890   14.1820 C   0  0  0  0  0  0  0  0  0  0  0  0
   25.0600    6.2910   13.2420 O   0  0  0  0  0  0  0  0  0  0  0  0
   27.2530    5.9450   13.9890 C   0  0  0  0  0  0  0  0  0  0  0  0
   28.0720    5.5020   15.0130 C   0  0  0  0  0  0  0  0  0  0  0  0
   29.4360    5.4830   14.7800 C   0  0  0  0  0  0  0  0  0  0  0  0
   29.9300    5.8940   13.5570 C   0  0  0  0  0  0  0  0  0  0  0  0
   31.2460    5.9020   13.2870 F   0  0  0  0  0  0  0  0  0  0  0  0
   29.0360    6.3230   12.6020 C   0  0  0  0  0  0  0  0  0  0  0  0
   27.7080    6.3580   12.8010 N   0  0  0  0  0  0  0  0  0  0  0  0
   23.3090    4.7590   16.4440 C   0  0  0  0  0  0  0  0  0  0  0  0
   22.0450    5.0080   16.9470 C   0  0  0  0  0  0  0  0  0  0  0  0
   21.5380    6.2920   16.9890 C   0  0  0  0  0  0  0  0  0  0  0  0
   20.2830    6.5070   17.4590 F   0  0  0  0  0  0  0  0  0  0  0  0
   20.4450    9.0440   15.9140 C   0  0  0  0  0  0  0  0  0  0  0  0
   20.6450    8.7770   14.1710 S   0  0  0  0  0  0  0  0  0  0  0  0
   19.6570    9.6100   13.5080 O   0  0  0  0  0  0  0  0  0  0  0  0
   20.8630    7.3960   13.8710 O   0  0  0  0  0  0  0  0  0  0  0  0
   23.4505   10.2706   12.3990 H   0  0  0  0  0  0  0  0  0  0  0  0
   22.6301    8.7248   11.9940 H   0  0  0  0  0  0  0  0  0  0  0  0
   21.7004   10.2618   11.9940 H   0  0  0  0  0  0  0  0  0  0  0  0
   24.5400   11.3190   15.2020 H   0  0  0  0  0  0  0  0  0  0  0  0
   24.0660   11.0750   13.5820 H   0  0  0  0  0  0  0  0  0  0  0  0
   21.9912    8.4290   18.7584 H   0  0  0  0  0  0  0  0  0  0  0  0
   21.9513   10.1691   18.3144 H   0  0  0  0  0  0  0  0  0  0  0  0
   20.4343    9.2071   18.3144 H   0  0  0  0  0  0  0  0  0  0  0  0
   24.1720    7.9550   15.7185 H   0  0  0  0  0  0  0  0  0  0  0  0
   26.0310    5.3660   16.0850 H   0  0  0  0  0  0  0  0  0  0  0  0
   27.6539    5.1768   15.9771 H   0  0  0  0  0  0  0  0  0  0  0  0
   30.1251    5.1415   15.5665 H   0  0  0  0  0  0  0  0  0  0  0  0
   29.4282    6.6531   11.6288 H   0  0  0  0  0  0  0  0  0  0  0  0
   23.7112    3.7359   16.4045 H   0  0  0  0  0  0  0  0  0  0  0  0
   21.4349    4.1716   17.3188 H   0  0  0  0  0  0  0  0  0  0  0  0
   19.6854    8.3488   16.3009 H   0  0  0  0  0  0  0  0  0  0  0  0
   20.1290   10.0848   16.0782 H   0  0  0  0  0  0  0  0  0  0  0  0
  1  2  1  0
  2  3  1  0
  3  4  1  0
  3  5  2  0
  5  6  1  0
  6  7  1  1
  6  8  1  0
  8  9  2  0
  9 10  1  0
 10 11  1  0
 11 12  1  0
 12 13  2  0
 12 14  1  0
 14 15  2  0
 15 16  1  0
 16 17  2  0
 17 18  1  0
 17 19  1  0
 19 20  2  0
 10 21  2  0
 21 22  1  0
 22 23  2  0
 23 24  1  0
  6 25  1  0
 25 26  1  0
 26 27  2  0
 26 28  2  0
 26  2  1  0
 23  8  1  0
 20 14  1  0
  1 29  1  0
  1 30  1  0
  1 31  1  0
  4 32  1  0
  4 33  1  0
  7 34  1  0
  7 35  1  0
  7 36  1  0
  9 37  1  0
 11 38  1  0
 15 39  1  0
 16 40  1  0
 19 41  1  0
 21 42  1  0
 22 43  1  0
 25 44  1  0
 25 45  1  0
M  END
>  <meeko>  (20)
{"is_sidechain": false}

>  <source_group>  (20)
BACE1-457

>  <source_system>  (20)
BACE1_verubecestat

>  <source_run>  (20)
alternate_457_seed2207_ex32

>  <source_seed>  (20)
2207

>  <vina_pose_rank>  (20)
20

>  <vina_affinity_kcal_mol>  (20)
-6.8010000000000002

>  <vina_rmsd_to_crystal_angstrom>  (20)
8.4542000000000002

$$$$
