CHRNA7_encenicline__canonical_obabel_seed5519_ex32__pose01
     RDKit          3D

 38 41  0  0  0  0  0  0  0  0999 V2000
  143.6280  140.7300   90.0260 O   0  0  0  0  0  0  0  0  0  0  0  0
  143.0800  139.7120   90.2830 C   0  0  0  0  0  0  0  0  0  0  0  0
  141.6350  139.6270   90.1910 N   0  0  0  0  0  0  0  0  0  0  0  0
  140.8610  140.8210   89.7800 C   0  0  1  0  0  0  0  0  0  0  0  0
  140.5170  140.7320   88.2800 C   0  0  0  0  0  0  0  0  0  0  0  0
  139.1360  140.7730   88.0740 N   0  0  0  0  0  0  0  0  0  0  0  0
  138.6060  141.9300   88.6020 C   0  0  0  0  0  0  0  0  0  0  0  0
  138.8650  142.0290   90.0760 C   0  0  0  0  0  0  0  0  0  0  0  0
  139.6110  140.8890   90.5310 C   0  0  0  0  0  0  0  0  0  0  0  0
  138.8350  139.6850   90.2420 C   0  0  0  0  0  0  0  0  0  0  0  0
  138.5280  139.6540   88.6960 C   0  0  0  0  0  0  0  0  0  0  0  0
  143.9070  138.4920   90.7060 C   0  0  0  0  0  0  0  0  0  0  0  0
  143.4170  137.2610   90.9820 C   0  0  0  0  0  0  0  0  0  0  0  0
  144.3190  136.2130   91.3660 C   0  0  0  0  0  0  0  0  0  0  0  0
  143.9860  134.9200   91.6740 C   0  0  0  0  0  0  0  0  0  0  0  0
  144.9790  134.0090   92.0320 C   0  0  0  0  0  0  0  0  0  0  0  0
  146.3230  134.4170   92.0770 C   0  0  0  0  0  0  0  0  0  0  0  0
  146.6710  135.7350   91.7620 C   0  0  0  0  0  0  0  0  0  0  0  0
  148.3780  136.2460   91.8190 Cl  0  0  0  0  0  0  0  0  0  0  0  0
  145.6930  136.6340   91.4090 C   0  0  0  0  0  0  0  0  0  0  0  0
  145.6300  138.3870   90.9310 S   0  0  0  0  0  0  0  0  0  0  0  0
  141.1730  138.7840   90.4010 H   0  0  0  0  0  0  0  0  0  0  0  0
  141.4702  141.7152   89.9782 H   0  0  0  0  0  0  0  0  0  0  0  0
  140.9832  141.5784   87.7544 H   0  0  0  0  0  0  0  0  0  0  0  0
  140.8983  139.7760   87.8919 H   0  0  0  0  0  0  0  0  0  0  0  0
  139.0637  142.7949   88.0995 H   0  0  0  0  0  0  0  0  0  0  0  0
  137.5177  141.9160   88.4424 H   0  0  0  0  0  0  0  0  0  0  0  0
  139.4396  142.9440   90.2824 H   0  0  0  0  0  0  0  0  0  0  0  0
  137.9017  142.0599   90.6063 H   0  0  0  0  0  0  0  0  0  0  0  0
  139.8144  140.9695   91.6090 H   0  0  0  0  0  0  0  0  0  0  0  0
  139.4133  138.7929   90.5244 H   0  0  0  0  0  0  0  0  0  0  0  0
  137.8961  139.6923   90.8150 H   0  0  0  0  0  0  0  0  0  0  0  0
  138.9307  138.7278   88.2601 H   0  0  0  0  0  0  0  0  0  0  0  0
  137.4403  139.6901   88.5361 H   0  0  0  0  0  0  0  0  0  0  0  0
  142.3367  137.0655   90.9126 H   0  0  0  0  0  0  0  0  0  0  0  0
  142.9341  134.6003   91.6388 H   0  0  0  0  0  0  0  0  0  0  0  0
  144.7105  132.9713   92.2791 H   0  0  0  0  0  0  0  0  0  0  0  0
  147.1047  133.6971   92.3611 H   0  0  0  0  0  0  0  0  0  0  0  0
  1  2  2  0
  2  3  1  0
  3  4  1  0
  4  5  1  0
  5  6  1  0
  6  7  1  0
  7  8  1  0
  8  9  1  0
  9 10  1  0
 10 11  1  0
  2 12  1  0
 12 13  2  0
 13 14  1  0
 14 15  2  0
 15 16  1  0
 16 17  2  0
 17 18  1  0
 18 19  1  0
 18 20  2  0
 20 21  1  0
  9  4  1  0
 21 12  1  0
 11  6  1  0
 20 14  1  0
  3 22  1  0
  4 23  1  6
  5 24  1  0
  5 25  1  0
  7 26  1  0
  7 27  1  0
  8 28  1  0
  8 29  1  0
  9 30  1  0
 10 31  1  0
 10 32  1  0
 11 33  1  0
 11 34  1  0
 13 35  1  0
 15 36  1  0
 16 37  1  0
 17 38  1  0
M  END
>  <meeko>  (1)
{"is_sidechain": false}

>  <source_group>  (1)
CHRNA7 canonical

>  <source_system>  (1)
CHRNA7_encenicline

>  <source_run>  (1)
canonical_obabel_seed5519_ex32

>  <source_seed>  (1)
5519

>  <vina_pose_rank>  (1)
1

>  <vina_affinity_kcal_mol>  (1)
-9.8670000000000009

>  <vina_rmsd_to_crystal_angstrom>  (1)
0.29170000000000001

$$$$
CHRNA7_encenicline__canonical_obabel_seed5519_ex32__pose02
     RDKit          3D

 38 41  0  0  0  0  0  0  0  0999 V2000
  143.8180  140.8790   89.9400 O   0  0  0  0  0  0  0  0  0  0  0  0
  143.3250  139.8330   90.1970 C   0  0  0  0  0  0  0  0  0  0  0  0
  141.8920  139.6600   90.0620 N   0  0  0  0  0  0  0  0  0  0  0  0
  141.0600  140.7980   89.6070 C   0  0  1  0  0  0  0  0  0  0  0  0
  140.6490  140.5930   88.1360 C   0  0  0  0  0  0  0  0  0  0  0  0
  139.2590  140.5780   87.9970 N   0  0  0  0  0  0  0  0  0  0  0  0
  138.7170  141.7550   88.4680 C   0  0  0  0  0  0  0  0  0  0  0  0
  139.0430  141.9660   89.9170 C   0  0  0  0  0  0  0  0  0  0  0  0
  139.8460  140.8830   90.4130 C   0  0  0  0  0  0  0  0  0  0  0  0
  139.0960  139.6400   90.2480 C   0  0  0  0  0  0  0  0  0  0  0  0
  138.7180  139.4900   88.7250 C   0  0  0  0  0  0  0  0  0  0  0  0
  144.2100  138.6730   90.6650 C   0  0  0  0  0  0  0  0  0  0  0  0
  145.5460  138.7290   90.8720 C   0  0  0  0  0  0  0  0  0  0  0  0
  146.2420  137.5550   91.3150 C   0  0  0  0  0  0  0  0  0  0  0  0
  147.5840  137.4480   91.5700 C   0  0  0  0  0  0  0  0  0  0  0  0
  148.1190  136.2320   91.9960 C   0  0  0  0  0  0  0  0  0  0  0  0
  147.2810  135.1160   92.1640 C   0  0  0  0  0  0  0  0  0  0  0  0
  145.9100  135.2190   91.9060 C   0  0  0  0  0  0  0  0  0  0  0  0
  144.8520  133.8000   92.1230 Cl  0  0  0  0  0  0  0  0  0  0  0  0
  145.3810  136.4160   91.4860 C   0  0  0  0  0  0  0  0  0  0  0  0
  143.7340  137.0400   91.0380 S   0  0  0  0  0  0  0  0  0  0  0  0
  141.4750  138.7940   90.2710 H   0  0  0  0  0  0  0  0  0  0  0  0
  141.6481  141.7217   89.7113 H   0  0  0  0  0  0  0  0  0  0  0  0
  141.0613  141.4137   87.5306 H   0  0  0  0  0  0  0  0  0  0  0  0
  141.0434  139.6241   87.7960 H   0  0  0  0  0  0  0  0  0  0  0  0
  139.1221  142.5946   87.8840 H   0  0  0  0  0  0  0  0  0  0  0  0
  137.6234  141.6989   88.3636 H   0  0  0  0  0  0  0  0  0  0  0  0
  139.5973  142.9094   90.0301 H   0  0  0  0  0  0  0  0  0  0  0  0
  138.1056  142.0069   90.4911 H   0  0  0  0  0  0  0  0  0  0  0  0
  140.0980  141.0454   91.4714 H   0  0  0  0  0  0  0  0  0  0  0  0
  139.7149  138.7872   90.5636 H   0  0  0  0  0  0  0  0  0  0  0  0
  138.1854  139.6615   90.8647 H   0  0  0  0  0  0  0  0  0  0  0  0
  139.1296  138.5471   88.3358 H   0  0  0  0  0  0  0  0  0  0  0  0
  137.6234  139.4834   88.6169 H   0  0  0  0  0  0  0  0  0  0  0  0
  146.0943  139.6673   90.7020 H   0  0  0  0  0  0  0  0  0  0  0  0
  148.2398  138.3213   91.4388 H   0  0  0  0  0  0  0  0  0  0  0  0
  149.1965  136.1466   92.2004 H   0  0  0  0  0  0  0  0  0  0  0  0
  147.7049  134.1581   92.4996 H   0  0  0  0  0  0  0  0  0  0  0  0
  1  2  2  0
  2  3  1  0
  3  4  1  0
  4  5  1  0
  5  6  1  0
  6  7  1  0
  7  8  1  0
  8  9  1  0
  9 10  1  0
 10 11  1  0
  2 12  1  0
 12 13  2  0
 13 14  1  0
 14 15  2  0
 15 16  1  0
 16 17  2  0
 17 18  1  0
 18 19  1  0
 18 20  2  0
 20 21  1  0
  9  4  1  0
 21 12  1  0
 11  6  1  0
 20 14  1  0
  3 22  1  0
  4 23  1  6
  5 24  1  0
  5 25  1  0
  7 26  1  0
  7 27  1  0
  8 28  1  0
  8 29  1  0
  9 30  1  0
 10 31  1  0
 10 32  1  0
 11 33  1  0
 11 34  1  0
 13 35  1  0
 15 36  1  0
 16 37  1  0
 17 38  1  0
M  END
>  <meeko>  (2)
{"is_sidechain": false}

>  <source_group>  (2)
CHRNA7 canonical

>  <source_system>  (2)
CHRNA7_encenicline

>  <source_run>  (2)
canonical_obabel_seed5519_ex32

>  <source_seed>  (2)
5519

>  <vina_pose_rank>  (2)
2

>  <vina_affinity_kcal_mol>  (2)
-9.1159999999999997

>  <vina_rmsd_to_crystal_angstrom>  (2)
1.8454999999999999

$$$$
CHRNA7_encenicline__canonical_obabel_seed5519_ex32__pose03
     RDKit          3D

 38 41  0  0  0  0  0  0  0  0999 V2000
  140.1200  136.6630   90.3060 O   0  0  0  0  0  0  0  0  0  0  0  0
  140.9670  137.4710   90.4850 C   0  0  0  0  0  0  0  0  0  0  0  0
  140.6650  138.8800   90.3230 N   0  0  0  0  0  0  0  0  0  0  0  0
  139.2970  139.2910   89.9300 C   0  0  1  0  0  0  0  0  0  0  0  0
  138.8640  140.5240   90.7480 C   0  0  0  0  0  0  0  0  0  0  0  0
  138.5470  141.5990   89.9130 N   0  0  0  0  0  0  0  0  0  0  0  0
  137.5410  141.2470   89.0400 C   0  0  0  0  0  0  0  0  0  0  0  0
  137.9430  140.0860   88.1800 C   0  0  0  0  0  0  0  0  0  0  0  0
  139.2700  139.6490   88.5150 C   0  0  0  0  0  0  0  0  0  0  0  0
  140.1890  140.7650   88.3060 C   0  0  0  0  0  0  0  0  0  0  0  0
  139.6940  141.9830   89.1750 C   0  0  0  0  0  0  0  0  0  0  0  0
  142.3730  137.0170   90.8910 C   0  0  0  0  0  0  0  0  0  0  0  0
  142.7510  135.7430   91.1450 C   0  0  0  0  0  0  0  0  0  0  0  0
  144.1110  135.4700   91.5140 C   0  0  0  0  0  0  0  0  0  0  0  0
  144.6500  134.2440   91.7990 C   0  0  0  0  0  0  0  0  0  0  0  0
  145.9980  134.1360   92.1460 C   0  0  0  0  0  0  0  0  0  0  0  0
  146.8020  135.2870   92.2030 C   0  0  0  0  0  0  0  0  0  0  0  0
  146.2580  136.5420   91.9110 C   0  0  0  0  0  0  0  0  0  0  0  0
  147.2850  137.9980   91.9830 Cl  0  0  0  0  0  0  0  0  0  0  0  0
  144.9320  136.6500   91.5700 C   0  0  0  0  0  0  0  0  0  0  0  0
  143.7950  137.9960   91.1200 S   0  0  0  0  0  0  0  0  0  0  0  0
  141.3620  139.5570   90.4720 H   0  0  0  0  0  0  0  0  0  0  0  0
  138.6135  138.4503   90.1200 H   0  0  0  0  0  0  0  0  0  0  0  0
  137.9801  140.2636   91.3488 H   0  0  0  0  0  0  0  0  0  0  0  0
  139.7003  140.8223   91.3973 H   0  0  0  0  0  0  0  0  0  0  0  0
  136.6463  140.9715   89.6176 H   0  0  0  0  0  0  0  0  0  0  0  0
  137.3343  142.1068   88.3857 H   0  0  0  0  0  0  0  0  0  0  0  0
  137.2378  139.2567   88.3382 H   0  0  0  0  0  0  0  0  0  0  0  0
  137.9269  140.4008   87.1261 H   0  0  0  0  0  0  0  0  0  0  0  0
  139.5588  138.7879   87.8945 H   0  0  0  0  0  0  0  0  0  0  0  0
  141.2035  140.4745   88.6164 H   0  0  0  0  0  0  0  0  0  0  0  0
  140.2118  141.0430   87.2420 H   0  0  0  0  0  0  0  0  0  0  0  0
  140.4918  142.2873   89.8685 H   0  0  0  0  0  0  0  0  0  0  0  0
  139.4414  142.8264   88.5155 H   0  0  0  0  0  0  0  0  0  0  0  0
  142.0219  134.9229   91.0693 H   0  0  0  0  0  0  0  0  0  0  0  0
  144.0203  133.3432   91.7545 H   0  0  0  0  0  0  0  0  0  0  0  0
  146.4303  133.1507   92.3746 H   0  0  0  0  0  0  0  0  0  0  0  0
  147.8635  135.2007   92.4784 H   0  0  0  0  0  0  0  0  0  0  0  0
  1  2  2  0
  2  3  1  0
  3  4  1  0
  4  5  1  0
  5  6  1  0
  6  7  1  0
  7  8  1  0
  8  9  1  0
  9 10  1  0
 10 11  1  0
  2 12  1  0
 12 13  2  0
 13 14  1  0
 14 15  2  0
 15 16  1  0
 16 17  2  0
 17 18  1  0
 18 19  1  0
 18 20  2  0
 20 21  1  0
  9  4  1  0
 21 12  1  0
 11  6  1  0
 20 14  1  0
  3 22  1  0
  4 23  1  6
  5 24  1  0
  5 25  1  0
  7 26  1  0
  7 27  1  0
  8 28  1  0
  8 29  1  0
  9 30  1  0
 10 31  1  0
 10 32  1  0
 11 33  1  0
 11 34  1  0
 13 35  1  0
 15 36  1  0
 16 37  1  0
 17 38  1  0
M  END
>  <meeko>  (3)
{"is_sidechain": false}

>  <source_group>  (3)
CHRNA7 canonical

>  <source_system>  (3)
CHRNA7_encenicline

>  <source_run>  (3)
canonical_obabel_seed5519_ex32

>  <source_seed>  (3)
5519

>  <vina_pose_rank>  (3)
3

>  <vina_affinity_kcal_mol>  (3)
-7.9800000000000004

>  <vina_rmsd_to_crystal_angstrom>  (3)
2.2806000000000002

$$$$
CHRNA7_encenicline__canonical_obabel_seed5519_ex32__pose04
     RDKit          3D

 38 41  0  0  0  0  0  0  0  0999 V2000
  145.7900  138.8320   93.0140 O   0  0  0  0  0  0  0  0  0  0  0  0
  145.5250  138.3880   91.9490 C   0  0  0  0  0  0  0  0  0  0  0  0
  146.5310  137.6600   91.2010 N   0  0  0  0  0  0  0  0  0  0  0  0
  147.8830  137.4830   91.7790 C   0  0  1  0  0  0  0  0  0  0  0  0
  148.1860  135.9820   91.9570 C   0  0  0  0  0  0  0  0  0  0  0  0
  149.3310  135.6100   91.2470 N   0  0  0  0  0  0  0  0  0  0  0  0
  150.4150  136.3530   91.6620 C   0  0  0  0  0  0  0  0  0  0  0  0
  150.1870  137.8200   91.4510 C   0  0  0  0  0  0  0  0  0  0  0  0
  148.8870  138.0490   90.8830 C   0  0  0  0  0  0  0  0  0  0  0  0
  148.8120  137.3450   89.6050 C   0  0  0  0  0  0  0  0  0  0  0  0
  149.1220  135.8210   89.8620 C   0  0  0  0  0  0  0  0  0  0  0  0
  144.1170  138.5860   91.3750 C   0  0  0  0  0  0  0  0  0  0  0  0
  143.1800  137.6210   91.2280 C   0  0  0  0  0  0  0  0  0  0  0  0
  141.9000  137.9590   90.6740 C   0  0  0  0  0  0  0  0  0  0  0  0
  140.8490  137.1060   90.4630 C   0  0  0  0  0  0  0  0  0  0  0  0
  139.6600  137.5840   89.9120 C   0  0  0  0  0  0  0  0  0  0  0  0
  139.5400  138.9420   89.5720 C   0  0  0  0  0  0  0  0  0  0  0  0
  140.6080  139.8190   89.7860 C   0  0  0  0  0  0  0  0  0  0  0  0
  140.4490  141.5420   89.3550 Cl  0  0  0  0  0  0  0  0  0  0  0  0
  141.7800  139.3500   90.3290 C   0  0  0  0  0  0  0  0  0  0  0  0
  143.3930  140.0550   90.7850 S   0  0  0  0  0  0  0  0  0  0  0  0
  146.3170  137.2850   90.3160 H   0  0  0  0  0  0  0  0  0  0  0  0
  147.9143  137.9941   92.7526 H   0  0  0  0  0  0  0  0  0  0  0  0
  148.3421  135.7717   93.0254 H   0  0  0  0  0  0  0  0  0  0  0  0
  147.3330  135.4060   91.5690 H   0  0  0  0  0  0  0  0  0  0  0  0
  150.5867  136.1680   92.7327 H   0  0  0  0  0  0  0  0  0  0  0  0
  151.2898  136.0500   91.0679 H   0  0  0  0  0  0  0  0  0  0  0  0
  150.2568  138.3402   92.4177 H   0  0  0  0  0  0  0  0  0  0  0  0
  150.9511  138.2036   90.7589 H   0  0  0  0  0  0  0  0  0  0  0  0
  148.7137  139.1261   90.7424 H   0  0  0  0  0  0  0  0  0  0  0  0
  147.8035  137.4530   89.1792 H   0  0  0  0  0  0  0  0  0  0  0  0
  149.5403  137.7662   88.8964 H   0  0  0  0  0  0  0  0  0  0  0  0
  148.2719  135.2113   89.5221 H   0  0  0  0  0  0  0  0  0  0  0  0
  150.0257  135.5312   89.3059 H   0  0  0  0  0  0  0  0  0  0  0  0
  143.3975  136.5861   91.5306 H   0  0  0  0  0  0  0  0  0  0  0  0
  140.9428  136.0426   90.7284 H   0  0  0  0  0  0  0  0  0  0  0  0
  138.8167  136.8981   89.7438 H   0  0  0  0  0  0  0  0  0  0  0  0
  138.6023  139.3168   89.1358 H   0  0  0  0  0  0  0  0  0  0  0  0
  1  2  2  0
  2  3  1  0
  3  4  1  0
  4  5  1  0
  5  6  1  0
  6  7  1  0
  7  8  1  0
  8  9  1  0
  9 10  1  0
 10 11  1  0
  2 12  1  0
 12 13  2  0
 13 14  1  0
 14 15  2  0
 15 16  1  0
 16 17  2  0
 17 18  1  0
 18 19  1  0
 18 20  2  0
 20 21  1  0
  9  4  1  0
 21 12  1  0
 11  6  1  0
 20 14  1  0
  3 22  1  0
  4 23  1  1
  5 24  1  0
  5 25  1  0
  7 26  1  0
  7 27  1  0
  8 28  1  0
  8 29  1  0
  9 30  1  0
 10 31  1  0
 10 32  1  0
 11 33  1  0
 11 34  1  0
 13 35  1  0
 15 36  1  0
 16 37  1  0
 17 38  1  0
M  END
>  <meeko>  (4)
{"is_sidechain": false}

>  <source_group>  (4)
CHRNA7 canonical

>  <source_system>  (4)
CHRNA7_encenicline

>  <source_run>  (4)
canonical_obabel_seed5519_ex32

>  <source_seed>  (4)
5519

>  <vina_pose_rank>  (4)
4

>  <vina_affinity_kcal_mol>  (4)
-7.6239999999999997

>  <vina_rmsd_to_crystal_angstrom>  (4)
7.9884000000000004

$$$$
CHRNA7_encenicline__canonical_obabel_seed5519_ex32__pose05
     RDKit          3D

 38 41  0  0  0  0  0  0  0  0999 V2000
  146.0970  138.9550   92.8900 O   0  0  0  0  0  0  0  0  0  0  0  0
  145.7870  138.2930   91.9580 C   0  0  0  0  0  0  0  0  0  0  0  0
  146.7860  137.4920   91.2790 N   0  0  0  0  0  0  0  0  0  0  0  0
  148.1870  137.5140   91.7590 C   0  0  1  0  0  0  0  0  0  0  0  0
  148.6610  136.0790   92.0620 C   0  0  0  0  0  0  0  0  0  0  0  0
  149.7860  135.7460   91.3020 N   0  0  0  0  0  0  0  0  0  0  0  0
  150.8110  136.6330   91.5490 C   0  0  0  0  0  0  0  0  0  0  0  0
  150.4130  138.0390   91.2100 C   0  0  0  0  0  0  0  0  0  0  0  0
  149.0590  138.0750   90.7310 C   0  0  0  0  0  0  0  0  0  0  0  0
  148.9690  137.2310   89.5410 C   0  0  0  0  0  0  0  0  0  0  0  0
  149.4580  135.7830   89.9250 C   0  0  0  0  0  0  0  0  0  0  0  0
  144.3300  138.2890   91.4830 C   0  0  0  0  0  0  0  0  0  0  0  0
  143.6110  139.3780   91.1260 C   0  0  0  0  0  0  0  0  0  0  0  0
  142.2500  139.2170   90.6980 C   0  0  0  0  0  0  0  0  0  0  0  0
  141.3940  140.2110   90.3050 C   0  0  0  0  0  0  0  0  0  0  0  0
  140.0920  139.8980   89.9150 C   0  0  0  0  0  0  0  0  0  0  0  0
  139.6580  138.5610   89.9240 C   0  0  0  0  0  0  0  0  0  0  0  0
  140.5280  137.5410   90.3230 C   0  0  0  0  0  0  0  0  0  0  0  0
  139.9730  135.8470   90.3310 Cl  0  0  0  0  0  0  0  0  0  0  0  0
  141.8110  137.8480   90.7090 C   0  0  0  0  0  0  0  0  0  0  0  0
  143.2660  136.9250   91.2880 S   0  0  0  0  0  0  0  0  0  0  0  0
  146.5360  136.9380   90.5050 H   0  0  0  0  0  0  0  0  0  0  0  0
  148.2321  138.1292   92.6698 H   0  0  0  0  0  0  0  0  0  0  0  0
  148.9142  136.0029   93.1297 H   0  0  0  0  0  0  0  0  0  0  0  0
  147.8490  135.3829   91.8048 H   0  0  0  0  0  0  0  0  0  0  0  0
  151.0775  136.5838   92.6151 H   0  0  0  0  0  0  0  0  0  0  0  0
  151.6684  136.3548   90.9186 H   0  0  0  0  0  0  0  0  0  0  0  0
  150.4958  138.6660   92.1100 H   0  0  0  0  0  0  0  0  0  0  0  0
  151.0802  138.4184   90.4220 H   0  0  0  0  0  0  0  0  0  0  0  0
  148.7620  139.1080   90.4972 H   0  0  0  0  0  0  0  0  0  0  0  0
  147.9270  137.1913   89.1908 H   0  0  0  0  0  0  0  0  0  0  0  0
  149.5956  137.6421   88.7358 H   0  0  0  0  0  0  0  0  0  0  0  0
  148.6562  135.0585   89.7193 H   0  0  0  0  0  0  0  0  0  0  0  0
  150.3461  135.5255   89.3292 H   0  0  0  0  0  0  0  0  0  0  0  0
  144.0656  140.3790   91.1634 H   0  0  0  0  0  0  0  0  0  0  0  0
  141.7336  141.2572   90.2969 H   0  0  0  0  0  0  0  0  0  0  0  0
  139.4048  140.6973   89.6004 H   0  0  0  0  0  0  0  0  0  0  0  0
  138.6307  138.3161   89.6162 H   0  0  0  0  0  0  0  0  0  0  0  0
  1  2  2  0
  2  3  1  0
  3  4  1  0
  4  5  1  0
  5  6  1  0
  6  7  1  0
  7  8  1  0
  8  9  1  0
  9 10  1  0
 10 11  1  0
  2 12  1  0
 12 13  2  0
 13 14  1  0
 14 15  2  0
 15 16  1  0
 16 17  2  0
 17 18  1  0
 18 19  1  0
 18 20  2  0
 20 21  1  0
  9  4  1  0
 21 12  1  0
 11  6  1  0
 20 14  1  0
  3 22  1  0
  4 23  1  1
  5 24  1  0
  5 25  1  0
  7 26  1  0
  7 27  1  0
  8 28  1  0
  8 29  1  0
  9 30  1  0
 10 31  1  0
 10 32  1  0
 11 33  1  0
 11 34  1  0
 13 35  1  0
 15 36  1  0
 16 37  1  0
 17 38  1  0
M  END
>  <meeko>  (5)
{"is_sidechain": false}

>  <source_group>  (5)
CHRNA7 canonical

>  <source_system>  (5)
CHRNA7_encenicline

>  <source_run>  (5)
canonical_obabel_seed5519_ex32

>  <source_seed>  (5)
5519

>  <vina_pose_rank>  (5)
5

>  <vina_affinity_kcal_mol>  (5)
-7.4850000000000003

>  <vina_rmsd_to_crystal_angstrom>  (5)
8.1218000000000004

$$$$
CHRNA7_encenicline__canonical_obabel_seed5519_ex32__pose06
     RDKit          3D

 38 41  0  0  0  0  0  0  0  0999 V2000
  144.8770  140.7290   91.1890 O   0  0  0  0  0  0  0  0  0  0  0  0
  144.2680  139.7800   90.8270 C   0  0  0  0  0  0  0  0  0  0  0  0
  144.8730  138.4640   90.9030 N   0  0  0  0  0  0  0  0  0  0  0  0
  146.2500  138.3250   91.4300 C   0  0  1  0  0  0  0  0  0  0  0  0
  146.3150  137.1500   92.4260 C   0  0  0  0  0  0  0  0  0  0  0  0
  147.2480  136.1920   92.0190 N   0  0  0  0  0  0  0  0  0  0  0  0
  148.4960  136.7620   91.8950 C   0  0  0  0  0  0  0  0  0  0  0  0
  148.4940  137.8740   90.8880 C   0  0  0  0  0  0  0  0  0  0  0  0
  147.1780  138.0490   90.3380 C   0  0  0  0  0  0  0  0  0  0  0  0
  146.7770  136.7980   89.6990 C   0  0  0  0  0  0  0  0  0  0  0  0
  146.8570  135.6470   90.7720 C   0  0  0  0  0  0  0  0  0  0  0  0
  142.8450  139.9530   90.2860 C   0  0  0  0  0  0  0  0  0  0  0  0
  141.7540  140.2770   91.0180 C   0  0  0  0  0  0  0  0  0  0  0  0
  140.4810  140.4060   90.3680 C   0  0  0  0  0  0  0  0  0  0  0  0
  139.2890  140.7280   90.9620 C   0  0  0  0  0  0  0  0  0  0  0  0
  138.1270  140.8150   90.1940 C   0  0  0  0  0  0  0  0  0  0  0  0
  138.1800  140.5740   88.8100 C   0  0  0  0  0  0  0  0  0  0  0  0
  139.3930  140.2470   88.1980 C   0  0  0  0  0  0  0  0  0  0  0  0
  139.4540  139.9440   86.4420 Cl  0  0  0  0  0  0  0  0  0  0  0  0
  140.5390  140.1590   88.9520 C   0  0  0  0  0  0  0  0  0  0  0  0
  142.2910  139.7830   88.6450 S   0  0  0  0  0  0  0  0  0  0  0  0
  144.3730  137.6700   90.6060 H   0  0  0  0  0  0  0  0  0  0  0  0
  146.5258  139.2642   91.9318 H   0  0  0  0  0  0  0  0  0  0  0  0
  146.6038  137.5342   93.4154 H   0  0  0  0  0  0  0  0  0  0  0  0
  145.3240  136.6745   92.4681 H   0  0  0  0  0  0  0  0  0  0  0  0
  148.8040  137.1643   92.8714 H   0  0  0  0  0  0  0  0  0  0  0  0
  149.1974  135.9869   91.5524 H   0  0  0  0  0  0  0  0  0  0  0  0
  148.8092  138.8071   91.3778 H   0  0  0  0  0  0  0  0  0  0  0  0
  149.1899  137.6203   90.0748 H   0  0  0  0  0  0  0  0  0  0  0  0
  147.1723  138.8752   89.6118 H   0  0  0  0  0  0  0  0  0  0  0  0
  145.7468  136.8856   89.3235 H   0  0  0  0  0  0  0  0  0  0  0  0
  147.4429  136.5742   88.8525 H   0  0  0  0  0  0  0  0  0  0  0  0
  145.8708  135.1704   90.8730 H   0  0  0  0  0  0  0  0  0  0  0  0
  147.5950  134.8970   90.4515 H   0  0  0  0  0  0  0  0  0  0  0  0
  141.8421  140.4401   92.1023 H   0  0  0  0  0  0  0  0  0  0  0  0
  139.2479  140.9180   92.0447 H   0  0  0  0  0  0  0  0  0  0  0  0
  137.1699  141.0721   90.6714 H   0  0  0  0  0  0  0  0  0  0  0  0
  137.2630  140.6431   88.2064 H   0  0  0  0  0  0  0  0  0  0  0  0
  1  2  2  0
  2  3  1  0
  3  4  1  0
  4  5  1  0
  5  6  1  0
  6  7  1  0
  7  8  1  0
  8  9  1  0
  9 10  1  0
 10 11  1  0
  2 12  1  0
 12 13  2  0
 13 14  1  0
 14 15  2  0
 15 16  1  0
 16 17  2  0
 17 18  1  0
 18 19  1  0
 18 20  2  0
 20 21  1  0
  9  4  1  0
 21 12  1  0
 11  6  1  0
 20 14  1  0
  3 22  1  0
  4 23  1  1
  5 24  1  0
  5 25  1  0
  7 26  1  0
  7 27  1  0
  8 28  1  0
  8 29  1  0
  9 30  1  0
 10 31  1  0
 10 32  1  0
 11 33  1  0
 11 34  1  0
 13 35  1  0
 15 36  1  0
 16 37  1  0
 17 38  1  0
M  END
>  <meeko>  (6)
{"is_sidechain": false}

>  <source_group>  (6)
CHRNA7 canonical

>  <source_system>  (6)
CHRNA7_encenicline

>  <source_run>  (6)
canonical_obabel_seed5519_ex32

>  <source_seed>  (6)
5519

>  <vina_pose_rank>  (6)
6

>  <vina_affinity_kcal_mol>  (6)
-7.3789999999999996

>  <vina_rmsd_to_crystal_angstrom>  (6)
7.8247

$$$$
CHRNA7_encenicline__canonical_obabel_seed5519_ex32__pose07
     RDKit          3D

 38 41  0  0  0  0  0  0  0  0999 V2000
  140.2780  136.7490   90.3360 O   0  0  0  0  0  0  0  0  0  0  0  0
  141.0890  137.6020   90.4670 C   0  0  0  0  0  0  0  0  0  0  0  0
  140.7180  138.9870   90.2500 N   0  0  0  0  0  0  0  0  0  0  0  0
  139.3270  139.3170   89.8650 C   0  0  1  0  0  0  0  0  0  0  0  0
  138.8040  140.4810   90.7300 C   0  0  0  0  0  0  0  0  0  0  0  0
  138.4150  141.5650   89.9380 N   0  0  0  0  0  0  0  0  0  0  0  0
  137.4400  141.1810   89.0440 C   0  0  0  0  0  0  0  0  0  0  0  0
  137.9270  140.0880   88.1390 C   0  0  0  0  0  0  0  0  0  0  0  0
  139.2800  139.7320   88.4660 C   0  0  0  0  0  0  0  0  0  0  0  0
  140.1190  140.9170   88.3100 C   0  0  0  0  0  0  0  0  0  0  0  0
  139.5350  142.0600   89.2250 C   0  0  0  0  0  0  0  0  0  0  0  0
  142.5210  137.2320   90.8660 C   0  0  0  0  0  0  0  0  0  0  0  0
  143.5130  138.1060   91.1540 C   0  0  0  0  0  0  0  0  0  0  0  0
  144.8100  137.6080   91.5160 C   0  0  0  0  0  0  0  0  0  0  0  0
  145.9120  138.3550   91.8350 C   0  0  0  0  0  0  0  0  0  0  0  0
  147.1120  137.7250   92.1670 C   0  0  0  0  0  0  0  0  0  0  0  0
  147.1890  136.3210   92.1740 C   0  0  0  0  0  0  0  0  0  0  0  0
  146.0670  135.5530   91.8490 C   0  0  0  0  0  0  0  0  0  0  0  0
  146.1700  133.7730   91.8610 Cl  0  0  0  0  0  0  0  0  0  0  0  0
  144.8840  136.1720   91.5220 C   0  0  0  0  0  0  0  0  0  0  0  0
  143.2110  135.6440   91.0450 S   0  0  0  0  0  0  0  0  0  0  0  0
  141.3850  139.7030   90.3590 H   0  0  0  0  0  0  0  0  0  0  0  0
  138.7046  138.4225   90.0152 H   0  0  0  0  0  0  0  0  0  0  0  0
  137.9382  140.1338   91.3130 H   0  0  0  0  0  0  0  0  0  0  0  0
  139.6143  140.8104   91.3970 H   0  0  0  0  0  0  0  0  0  0  0  0
  136.5643  140.8193   89.6029 H   0  0  0  0  0  0  0  0  0  0  0  0
  137.1758  142.0511   88.4250 H   0  0  0  0  0  0  0  0  0  0  0  0
  137.2814  139.2052   88.2570 H   0  0  0  0  0  0  0  0  0  0  0  0
  137.8935  140.4447   87.0990 H   0  0  0  0  0  0  0  0  0  0  0  0
  139.6310  138.9199   87.8124 H   0  0  0  0  0  0  0  0  0  0  0  0
  141.1500  140.6858   88.6159 H   0  0  0  0  0  0  0  0  0  0  0  0
  140.1274  141.2400   87.2585 H   0  0  0  0  0  0  0  0  0  0  0  0
  140.3061  142.3909   89.9363 H   0  0  0  0  0  0  0  0  0  0  0  0
  139.2261  142.9103   88.5992 H   0  0  0  0  0  0  0  0  0  0  0  0
  143.3272  139.1894   91.1111 H   0  0  0  0  0  0  0  0  0  0  0  0
  145.8514  139.4533   91.8296 H   0  0  0  0  0  0  0  0  0  0  0  0
  147.9969  138.3262   92.4230 H   0  0  0  0  0  0  0  0  0  0  0  0
  148.1353  135.8253   92.4361 H   0  0  0  0  0  0  0  0  0  0  0  0
  1  2  2  0
  2  3  1  0
  3  4  1  0
  4  5  1  0
  5  6  1  0
  6  7  1  0
  7  8  1  0
  8  9  1  0
  9 10  1  0
 10 11  1  0
  2 12  1  0
 12 13  2  0
 13 14  1  0
 14 15  2  0
 15 16  1  0
 16 17  2  0
 17 18  1  0
 18 19  1  0
 18 20  2  0
 20 21  1  0
  9  4  1  0
 21 12  1  0
 11  6  1  0
 20 14  1  0
  3 22  1  0
  4 23  1  6
  5 24  1  0
  5 25  1  0
  7 26  1  0
  7 27  1  0
  8 28  1  0
  8 29  1  0
  9 30  1  0
 10 31  1  0
 10 32  1  0
 11 33  1  0
 11 34  1  0
 13 35  1  0
 15 36  1  0
 16 37  1  0
 17 38  1  0
M  END
>  <meeko>  (7)
{"is_sidechain": false}

>  <source_group>  (7)
CHRNA7 canonical

>  <source_system>  (7)
CHRNA7_encenicline

>  <source_run>  (7)
canonical_obabel_seed5519_ex32

>  <source_seed>  (7)
5519

>  <vina_pose_rank>  (7)
7

>  <vina_affinity_kcal_mol>  (7)
-7.2889999999999997

>  <vina_rmsd_to_crystal_angstrom>  (7)
2.7322000000000002

$$$$
CHRNA7_encenicline__canonical_obabel_seed5519_ex32__pose08
     RDKit          3D

 38 41  0  0  0  0  0  0  0  0999 V2000
  148.0150  135.1760   92.6410 O   0  0  0  0  0  0  0  0  0  0  0  0
  147.9760  136.2520   92.1470 C   0  0  0  0  0  0  0  0  0  0  0  0
  149.2090  136.9640   91.8710 N   0  0  0  0  0  0  0  0  0  0  0  0
  150.5050  136.3360   92.2160 C   0  0  1  0  0  0  0  0  0  0  0  0
  151.0000  135.4720   91.0400 C   0  0  0  0  0  0  0  0  0  0  0  0
  152.2530  135.8970   90.5920 N   0  0  0  0  0  0  0  0  0  0  0  0
  153.1710  135.8490   91.6180 C   0  0  0  0  0  0  0  0  0  0  0  0
  152.7580  136.7250   92.7640 C   0  0  0  0  0  0  0  0  0  0  0  0
  151.5050  137.3670   92.4780 C   0  0  0  0  0  0  0  0  0  0  0  0
  151.6640  138.1710   91.2690 C   0  0  0  0  0  0  0  0  0  0  0  0
  152.1610  137.2260   90.1090 C   0  0  0  0  0  0  0  0  0  0  0  0
  146.6200  136.8770   91.8000 C   0  0  0  0  0  0  0  0  0  0  0  0
  146.3780  138.1980   91.6310 C   0  0  0  0  0  0  0  0  0  0  0  0
  145.0510  138.6360   91.3040 C   0  0  0  0  0  0  0  0  0  0  0  0
  144.6440  139.9280   91.1000 C   0  0  0  0  0  0  0  0  0  0  0  0
  143.3110  140.2000   90.7890 C   0  0  0  0  0  0  0  0  0  0  0  0
  142.3860  139.1470   90.6850 C   0  0  0  0  0  0  0  0  0  0  0  0
  142.7950  137.8260   90.8910 C   0  0  0  0  0  0  0  0  0  0  0  0
  141.6160  136.4950   90.7560 Cl  0  0  0  0  0  0  0  0  0  0  0  0
  144.1070  137.5560   91.1980 C   0  0  0  0  0  0  0  0  0  0  0  0
  145.0980  136.0720   91.5440 S   0  0  0  0  0  0  0  0  0  0  0  0
  149.1850  137.8570   91.4580 H   0  0  0  0  0  0  0  0  0  0  0  0
  150.3615  135.7122   93.1106 H   0  0  0  0  0  0  0  0  0  0  0  0
  151.0732  134.4252   91.3700 H   0  0  0  0  0  0  0  0  0  0  0  0
  150.2831  135.5687   90.2113 H   0  0  0  0  0  0  0  0  0  0  0  0
  153.2565  134.8115   91.9734 H   0  0  0  0  0  0  0  0  0  0  0  0
  154.1366  136.2117   91.2357 H   0  0  0  0  0  0  0  0  0  0  0  0
  152.6517  136.1103   93.6700 H   0  0  0  0  0  0  0  0  0  0  0  0
  153.5269  137.4964   92.9183 H   0  0  0  0  0  0  0  0  0  0  0  0
  151.1950  137.9979   93.3241 H   0  0  0  0  0  0  0  0  0  0  0  0
  150.6999  138.6231   90.9933 H   0  0  0  0  0  0  0  0  0  0  0  0
  152.3938  138.9757   91.4418 H   0  0  0  0  0  0  0  0  0  0  0  0
  151.4470  137.2642   89.2731 H   0  0  0  0  0  0  0  0  0  0  0  0
  153.1496  137.5599   89.7609 H   0  0  0  0  0  0  0  0  0  0  0  0
  147.1916  138.9297   91.7433 H   0  0  0  0  0  0  0  0  0  0  0  0
  145.3684  140.7517   91.1814 H   0  0  0  0  0  0  0  0  0  0  0  0
  142.9846  141.2376   90.6254 H   0  0  0  0  0  0  0  0  0  0  0  0
  141.3355  139.3631   90.4404 H   0  0  0  0  0  0  0  0  0  0  0  0
  1  2  2  0
  2  3  1  0
  3  4  1  0
  4  5  1  0
  5  6  1  0
  6  7  1  0
  7  8  1  0
  8  9  1  0
  9 10  1  0
 10 11  1  0
  2 12  1  0
 12 13  2  0
 13 14  1  0
 14 15  2  0
 15 16  1  0
 16 17  2  0
 17 18  1  0
 18 19  1  0
 18 20  2  0
 20 21  1  0
  9  4  1  0
 21 12  1  0
 11  6  1  0
 20 14  1  0
  3 22  1  0
  4 23  1  1
  5 24  1  0
  5 25  1  0
  7 26  1  0
  7 27  1  0
  8 28  1  0
  8 29  1  0
  9 30  1  0
 10 31  1  0
 10 32  1  0
 11 33  1  0
 11 34  1  0
 13 35  1  0
 15 36  1  0
 16 37  1  0
 17 38  1  0
M  END
>  <meeko>  (8)
{"is_sidechain": false}

>  <source_group>  (8)
CHRNA7 canonical

>  <source_system>  (8)
CHRNA7_encenicline

>  <source_run>  (8)
canonical_obabel_seed5519_ex32

>  <source_seed>  (8)
5519

>  <vina_pose_rank>  (8)
8

>  <vina_affinity_kcal_mol>  (8)
-7.0039999999999996

>  <vina_rmsd_to_crystal_angstrom>  (8)
9.3417999999999992

$$$$
