CHRNA7_encenicline__canonical_obabel_seed5519_ex32__pose01


 22 25  0  0  0  0  0  0  0  0999 V2000
  143.6280  140.7300   90.0260 O   0  0  0  0  0  0  0  0  0  0  0  0
  143.0800  139.7120   90.2830 C   0  0  0  0  0  0  0  0  0  0  0  0
  141.6350  139.6270   90.1910 N   0  0  0  0  0  0  0  0  0  0  0  0
  141.1730  138.7840   90.4010 H   0  0  0  0  0  0  0  0  0  0  0  0
  143.9070  138.4920   90.7060 C   0  0  0  0  0  0  0  0  0  0  0  0
  143.4170  137.2610   90.9820 C   0  0  0  0  0  0  0  0  0  0  0  0
  144.3190  136.2130   91.3660 C   0  0  0  0  0  0  0  0  0  0  0  0
  143.9860  134.9200   91.6740 C   0  0  0  0  0  0  0  0  0  0  0  0
  144.9790  134.0090   92.0320 C   0  0  0  0  0  0  0  0  0  0  0  0
  146.3230  134.4170   92.0770 C   0  0  0  0  0  0  0  0  0  0  0  0
  146.6710  135.7350   91.7620 C   0  0  0  0  0  0  0  0  0  0  0  0
  148.3780  136.2460   91.8190 Cl  0  0  0  0  0  0  0  0  0  0  0  0
  145.6930  136.6340   91.4090 C   0  0  0  0  0  0  0  0  0  0  0  0
  145.6300  138.3870   90.9310 S   0  0  0  0  0  0  0  0  0  0  0  0
  140.8610  140.8210   89.7800 C   0  0  0  0  0  0  0  0  0  0  0  0
  140.5170  140.7320   88.2800 C   0  0  0  0  0  0  0  0  0  0  0  0
  139.1360  140.7730   88.0740 N   0  0  0  0  0  0  0  0  0  0  0  0
  138.6060  141.9300   88.6020 C   0  0  0  0  0  0  0  0  0  0  0  0
  138.8650  142.0290   90.0760 C   0  0  0  0  0  0  0  0  0  0  0  0
  139.6110  140.8890   90.5310 C   0  0  0  0  0  0  0  0  0  0  0  0
  138.8350  139.6850   90.2420 C   0  0  0  0  0  0  0  0  0  0  0  0
  138.5280  139.6540   88.6960 C   0  0  0  0  0  0  0  0  0  0  0  0
  1  2  2  0
  2  3  1  0
  3 15  1  0
 15 16  1  0
 16 17  1  0
 17 18  1  0
 18 19  1  0
 19 20  1  0
 20 21  1  0
 21 22  1  0
  2  5  1  0
  5  6  2  0
  6  7  1  0
  7  8  2  0
  8  9  1  0
  9 10  2  0
 10 11  1  0
 11 12  1  0
 11 13  2  0
 13 14  1  0
 20 15  1  0
 14  5  1  0
 22 17  1  0
 13  7  1  0
  3  4  1  0
M  END
> <meeko>
{"is_sidechain": false}

> <source_group>
CHRNA7 canonical

> <source_system>
CHRNA7_encenicline

> <source_run>
canonical_obabel_seed5519_ex32

> <source_seed>
5519

> <vina_pose_rank>
1

> <vina_affinity_kcal_mol>
-9.8670000000000009

> <vina_rmsd_to_crystal_angstrom>
0.29170000000000001

> <minimizedAffinity>
-9.86694

> <CNNscore>
0.9539160728

> <CNNaffinity>
6.9288601875

> <CNN_VS>
6.6095509529

> <CNNaffinity_variance>
0.0193362702

$$$$
CHRNA7_encenicline__canonical_obabel_seed5519_ex32__pose02


 22 25  0  0  0  0  0  0  0  0999 V2000
  143.8180  140.8790   89.9400 O   0  0  0  0  0  0  0  0  0  0  0  0
  143.3250  139.8330   90.1970 C   0  0  0  0  0  0  0  0  0  0  0  0
  141.8920  139.6600   90.0620 N   0  0  0  0  0  0  0  0  0  0  0  0
  141.4750  138.7940   90.2710 H   0  0  0  0  0  0  0  0  0  0  0  0
  144.2100  138.6730   90.6650 C   0  0  0  0  0  0  0  0  0  0  0  0
  145.5460  138.7290   90.8720 C   0  0  0  0  0  0  0  0  0  0  0  0
  146.2420  137.5550   91.3150 C   0  0  0  0  0  0  0  0  0  0  0  0
  147.5840  137.4480   91.5700 C   0  0  0  0  0  0  0  0  0  0  0  0
  148.1190  136.2320   91.9960 C   0  0  0  0  0  0  0  0  0  0  0  0
  147.2810  135.1160   92.1640 C   0  0  0  0  0  0  0  0  0  0  0  0
  145.9100  135.2190   91.9060 C   0  0  0  0  0  0  0  0  0  0  0  0
  144.8520  133.8000   92.1230 Cl  0  0  0  0  0  0  0  0  0  0  0  0
  145.3810  136.4160   91.4860 C   0  0  0  0  0  0  0  0  0  0  0  0
  143.7340  137.0400   91.0380 S   0  0  0  0  0  0  0  0  0  0  0  0
  141.0600  140.7980   89.6070 C   0  0  0  0  0  0  0  0  0  0  0  0
  140.6490  140.5930   88.1360 C   0  0  0  0  0  0  0  0  0  0  0  0
  139.2590  140.5780   87.9970 N   0  0  0  0  0  0  0  0  0  0  0  0
  138.7170  141.7550   88.4680 C   0  0  0  0  0  0  0  0  0  0  0  0
  139.0430  141.9660   89.9170 C   0  0  0  0  0  0  0  0  0  0  0  0
  139.8460  140.8830   90.4130 C   0  0  0  0  0  0  0  0  0  0  0  0
  139.0960  139.6400   90.2480 C   0  0  0  0  0  0  0  0  0  0  0  0
  138.7180  139.4900   88.7250 C   0  0  0  0  0  0  0  0  0  0  0  0
  1  2  2  0
  2  3  1  0
  3 15  1  0
 15 16  1  0
 16 17  1  0
 17 18  1  0
 18 19  1  0
 19 20  1  0
 20 21  1  0
 21 22  1  0
  2  5  1  0
  5  6  2  0
  6  7  1  0
  7  8  2  0
  8  9  1  0
  9 10  2  0
 10 11  1  0
 11 12  1  0
 11 13  2  0
 13 14  1  0
 20 15  1  0
 14  5  1  0
 22 17  1  0
 13  7  1  0
  3  4  1  0
M  END
> <meeko>
{"is_sidechain": false}

> <source_group>
CHRNA7 canonical

> <source_system>
CHRNA7_encenicline

> <source_run>
canonical_obabel_seed5519_ex32

> <source_seed>
5519

> <vina_pose_rank>
2

> <vina_affinity_kcal_mol>
-9.1159999999999997

> <vina_rmsd_to_crystal_angstrom>
1.8454999999999999

> <minimizedAffinity>
-9.13082

> <CNNscore>
0.9620817304

> <CNNaffinity>
7.1153206825

> <CNN_VS>
6.8455200195

> <CNNaffinity_variance>
0.0036222304

$$$$
CHRNA7_encenicline__canonical_obabel_seed5519_ex32__pose03


 22 25  0  0  0  0  0  0  0  0999 V2000
  140.1200  136.6630   90.3060 O   0  0  0  0  0  0  0  0  0  0  0  0
  140.9670  137.4710   90.4850 C   0  0  0  0  0  0  0  0  0  0  0  0
  140.6650  138.8800   90.3230 N   0  0  0  0  0  0  0  0  0  0  0  0
  141.3620  139.5570   90.4720 H   0  0  0  0  0  0  0  0  0  0  0  0
  142.3730  137.0170   90.8910 C   0  0  0  0  0  0  0  0  0  0  0  0
  142.7510  135.7430   91.1450 C   0  0  0  0  0  0  0  0  0  0  0  0
  144.1110  135.4700   91.5140 C   0  0  0  0  0  0  0  0  0  0  0  0
  144.6500  134.2440   91.7990 C   0  0  0  0  0  0  0  0  0  0  0  0
  145.9980  134.1360   92.1460 C   0  0  0  0  0  0  0  0  0  0  0  0
  146.8020  135.2870   92.2030 C   0  0  0  0  0  0  0  0  0  0  0  0
  146.2580  136.5420   91.9110 C   0  0  0  0  0  0  0  0  0  0  0  0
  147.2850  137.9980   91.9830 Cl  0  0  0  0  0  0  0  0  0  0  0  0
  144.9320  136.6500   91.5700 C   0  0  0  0  0  0  0  0  0  0  0  0
  143.7950  137.9960   91.1200 S   0  0  0  0  0  0  0  0  0  0  0  0
  139.2970  139.2910   89.9300 C   0  0  0  0  0  0  0  0  0  0  0  0
  138.8640  140.5240   90.7480 C   0  0  0  0  0  0  0  0  0  0  0  0
  138.5470  141.5990   89.9130 N   0  0  0  0  0  0  0  0  0  0  0  0
  137.5410  141.2470   89.0400 C   0  0  0  0  0  0  0  0  0  0  0  0
  137.9430  140.0860   88.1800 C   0  0  0  0  0  0  0  0  0  0  0  0
  139.2700  139.6490   88.5150 C   0  0  0  0  0  0  0  0  0  0  0  0
  140.1890  140.7650   88.3060 C   0  0  0  0  0  0  0  0  0  0  0  0
  139.6940  141.9830   89.1750 C   0  0  0  0  0  0  0  0  0  0  0  0
  1  2  2  0
  2  3  1  0
  3 15  1  0
 15 16  1  0
 16 17  1  0
 17 18  1  0
 18 19  1  0
 19 20  1  0
 20 21  1  0
 21 22  1  0
  2  5  1  0
  5  6  2  0
  6  7  1  0
  7  8  2  0
  8  9  1  0
  9 10  2  0
 10 11  1  0
 11 12  1  0
 11 13  2  0
 13 14  1  0
 20 15  1  0
 14  5  1  0
 22 17  1  0
 13  7  1  0
  3  4  1  0
M  END
> <meeko>
{"is_sidechain": false}

> <source_group>
CHRNA7 canonical

> <source_system>
CHRNA7_encenicline

> <source_run>
canonical_obabel_seed5519_ex32

> <source_seed>
5519

> <vina_pose_rank>
3

> <vina_affinity_kcal_mol>
-7.9800000000000004

> <vina_rmsd_to_crystal_angstrom>
2.2806000000000002

> <minimizedAffinity>
-7.98586

> <CNNscore>
0.8178834319

> <CNNaffinity>
7.2754054070

> <CNN_VS>
5.9504337311

> <CNNaffinity_variance>
0.1064740196

$$$$
CHRNA7_encenicline__canonical_obabel_seed5519_ex32__pose04


 22 25  0  0  0  0  0  0  0  0999 V2000
  145.7900  138.8320   93.0140 O   0  0  0  0  0  0  0  0  0  0  0  0
  145.5250  138.3880   91.9490 C   0  0  0  0  0  0  0  0  0  0  0  0
  146.5310  137.6600   91.2010 N   0  0  0  0  0  0  0  0  0  0  0  0
  146.3170  137.2850   90.3160 H   0  0  0  0  0  0  0  0  0  0  0  0
  144.1170  138.5860   91.3750 C   0  0  0  0  0  0  0  0  0  0  0  0
  143.1800  137.6210   91.2280 C   0  0  0  0  0  0  0  0  0  0  0  0
  141.9000  137.9590   90.6740 C   0  0  0  0  0  0  0  0  0  0  0  0
  140.8490  137.1060   90.4630 C   0  0  0  0  0  0  0  0  0  0  0  0
  139.6600  137.5840   89.9120 C   0  0  0  0  0  0  0  0  0  0  0  0
  139.5400  138.9420   89.5720 C   0  0  0  0  0  0  0  0  0  0  0  0
  140.6080  139.8190   89.7860 C   0  0  0  0  0  0  0  0  0  0  0  0
  140.4490  141.5420   89.3550 Cl  0  0  0  0  0  0  0  0  0  0  0  0
  141.7800  139.3500   90.3290 C   0  0  0  0  0  0  0  0  0  0  0  0
  143.3930  140.0550   90.7850 S   0  0  0  0  0  0  0  0  0  0  0  0
  147.8830  137.4830   91.7790 C   0  0  0  0  0  0  0  0  0  0  0  0
  148.1860  135.9820   91.9570 C   0  0  0  0  0  0  0  0  0  0  0  0
  149.3310  135.6100   91.2470 N   0  0  0  0  0  0  0  0  0  0  0  0
  150.4150  136.3530   91.6620 C   0  0  0  0  0  0  0  0  0  0  0  0
  150.1870  137.8200   91.4510 C   0  0  0  0  0  0  0  0  0  0  0  0
  148.8870  138.0490   90.8830 C   0  0  0  0  0  0  0  0  0  0  0  0
  148.8120  137.3450   89.6050 C   0  0  0  0  0  0  0  0  0  0  0  0
  149.1220  135.8210   89.8620 C   0  0  0  0  0  0  0  0  0  0  0  0
  1  2  2  0
  2  3  1  0
  3 15  1  0
 15 16  1  0
 16 17  1  0
 17 18  1  0
 18 19  1  0
 19 20  1  0
 20 21  1  0
 21 22  1  0
  2  5  1  0
  5  6  2  0
  6  7  1  0
  7  8  2  0
  8  9  1  0
  9 10  2  0
 10 11  1  0
 11 12  1  0
 11 13  2  0
 13 14  1  0
 20 15  1  0
 14  5  1  0
 22 17  1  0
 13  7  1  0
  3  4  1  0
M  END
> <meeko>
{"is_sidechain": false}

> <source_group>
CHRNA7 canonical

> <source_system>
CHRNA7_encenicline

> <source_run>
canonical_obabel_seed5519_ex32

> <source_seed>
5519

> <vina_pose_rank>
4

> <vina_affinity_kcal_mol>
-7.6239999999999997

> <vina_rmsd_to_crystal_angstrom>
7.9884000000000004

> <minimizedAffinity>
-7.62722

> <CNNscore>
0.2166058719

> <CNNaffinity>
5.0086846352

> <CNN_VS>
1.0849105120

> <CNNaffinity_variance>
0.4344730377

$$$$
CHRNA7_encenicline__canonical_obabel_seed5519_ex32__pose05


 22 25  0  0  0  0  0  0  0  0999 V2000
  146.0970  138.9550   92.8900 O   0  0  0  0  0  0  0  0  0  0  0  0
  145.7870  138.2930   91.9580 C   0  0  0  0  0  0  0  0  0  0  0  0
  146.7860  137.4920   91.2790 N   0  0  0  0  0  0  0  0  0  0  0  0
  146.5360  136.9380   90.5050 H   0  0  0  0  0  0  0  0  0  0  0  0
  144.3300  138.2890   91.4830 C   0  0  0  0  0  0  0  0  0  0  0  0
  143.6110  139.3780   91.1260 C   0  0  0  0  0  0  0  0  0  0  0  0
  142.2500  139.2170   90.6980 C   0  0  0  0  0  0  0  0  0  0  0  0
  141.3940  140.2110   90.3050 C   0  0  0  0  0  0  0  0  0  0  0  0
  140.0920  139.8980   89.9150 C   0  0  0  0  0  0  0  0  0  0  0  0
  139.6580  138.5610   89.9240 C   0  0  0  0  0  0  0  0  0  0  0  0
  140.5280  137.5410   90.3230 C   0  0  0  0  0  0  0  0  0  0  0  0
  139.9730  135.8470   90.3310 Cl  0  0  0  0  0  0  0  0  0  0  0  0
  141.8110  137.8480   90.7090 C   0  0  0  0  0  0  0  0  0  0  0  0
  143.2660  136.9250   91.2880 S   0  0  0  0  0  0  0  0  0  0  0  0
  148.1870  137.5140   91.7590 C   0  0  0  0  0  0  0  0  0  0  0  0
  148.6610  136.0790   92.0620 C   0  0  0  0  0  0  0  0  0  0  0  0
  149.7860  135.7460   91.3020 N   0  0  0  0  0  0  0  0  0  0  0  0
  150.8110  136.6330   91.5490 C   0  0  0  0  0  0  0  0  0  0  0  0
  150.4130  138.0390   91.2100 C   0  0  0  0  0  0  0  0  0  0  0  0
  149.0590  138.0750   90.7310 C   0  0  0  0  0  0  0  0  0  0  0  0
  148.9690  137.2310   89.5410 C   0  0  0  0  0  0  0  0  0  0  0  0
  149.4580  135.7830   89.9250 C   0  0  0  0  0  0  0  0  0  0  0  0
  1  2  2  0
  2  3  1  0
  3 15  1  0
 15 16  1  0
 16 17  1  0
 17 18  1  0
 18 19  1  0
 19 20  1  0
 20 21  1  0
 21 22  1  0
  2  5  1  0
  5  6  2  0
  6  7  1  0
  7  8  2  0
  8  9  1  0
  9 10  2  0
 10 11  1  0
 11 12  1  0
 11 13  2  0
 13 14  1  0
 20 15  1  0
 14  5  1  0
 22 17  1  0
 13  7  1  0
  3  4  1  0
M  END
> <meeko>
{"is_sidechain": false}

> <source_group>
CHRNA7 canonical

> <source_system>
CHRNA7_encenicline

> <source_run>
canonical_obabel_seed5519_ex32

> <source_seed>
5519

> <vina_pose_rank>
5

> <vina_affinity_kcal_mol>
-7.4850000000000003

> <vina_rmsd_to_crystal_angstrom>
8.1218000000000004

> <minimizedAffinity>
-7.49233

> <CNNscore>
0.2303745300

> <CNNaffinity>
5.1826210022

> <CNN_VS>
1.1939438581

> <CNNaffinity_variance>
0.5046146512

$$$$
CHRNA7_encenicline__canonical_obabel_seed5519_ex32__pose06


 22 25  0  0  0  0  0  0  0  0999 V2000
  144.8770  140.7290   91.1890 O   0  0  0  0  0  0  0  0  0  0  0  0
  144.2680  139.7800   90.8270 C   0  0  0  0  0  0  0  0  0  0  0  0
  144.8730  138.4640   90.9030 N   0  0  0  0  0  0  0  0  0  0  0  0
  144.3730  137.6700   90.6060 H   0  0  0  0  0  0  0  0  0  0  0  0
  142.8450  139.9530   90.2860 C   0  0  0  0  0  0  0  0  0  0  0  0
  141.7540  140.2770   91.0180 C   0  0  0  0  0  0  0  0  0  0  0  0
  140.4810  140.4060   90.3680 C   0  0  0  0  0  0  0  0  0  0  0  0
  139.2890  140.7280   90.9620 C   0  0  0  0  0  0  0  0  0  0  0  0
  138.1270  140.8150   90.1940 C   0  0  0  0  0  0  0  0  0  0  0  0
  138.1800  140.5740   88.8100 C   0  0  0  0  0  0  0  0  0  0  0  0
  139.3930  140.2470   88.1980 C   0  0  0  0  0  0  0  0  0  0  0  0
  139.4540  139.9440   86.4420 Cl  0  0  0  0  0  0  0  0  0  0  0  0
  140.5390  140.1590   88.9520 C   0  0  0  0  0  0  0  0  0  0  0  0
  142.2910  139.7830   88.6450 S   0  0  0  0  0  0  0  0  0  0  0  0
  146.2500  138.3250   91.4300 C   0  0  0  0  0  0  0  0  0  0  0  0
  146.3150  137.1500   92.4260 C   0  0  0  0  0  0  0  0  0  0  0  0
  147.2480  136.1920   92.0190 N   0  0  0  0  0  0  0  0  0  0  0  0
  148.4960  136.7620   91.8950 C   0  0  0  0  0  0  0  0  0  0  0  0
  148.4940  137.8740   90.8880 C   0  0  0  0  0  0  0  0  0  0  0  0
  147.1780  138.0490   90.3380 C   0  0  0  0  0  0  0  0  0  0  0  0
  146.7770  136.7980   89.6990 C   0  0  0  0  0  0  0  0  0  0  0  0
  146.8570  135.6470   90.7720 C   0  0  0  0  0  0  0  0  0  0  0  0
  1  2  2  0
  2  3  1  0
  3 15  1  0
 15 16  1  0
 16 17  1  0
 17 18  1  0
 18 19  1  0
 19 20  1  0
 20 21  1  0
 21 22  1  0
  2  5  1  0
  5  6  2  0
  6  7  1  0
  7  8  2  0
  8  9  1  0
  9 10  2  0
 10 11  1  0
 11 12  1  0
 11 13  2  0
 13 14  1  0
 20 15  1  0
 14  5  1  0
 22 17  1  0
 13  7  1  0
  3  4  1  0
M  END
> <meeko>
{"is_sidechain": false}

> <source_group>
CHRNA7 canonical

> <source_system>
CHRNA7_encenicline

> <source_run>
canonical_obabel_seed5519_ex32

> <source_seed>
5519

> <vina_pose_rank>
6

> <vina_affinity_kcal_mol>
-7.3789999999999996

> <vina_rmsd_to_crystal_angstrom>
7.8247

> <minimizedAffinity>
-7.38633

> <CNNscore>
0.1590513587

> <CNNaffinity>
5.2932281494

> <CNN_VS>
0.8418951035

> <CNNaffinity_variance>
0.3337496221

$$$$
CHRNA7_encenicline__canonical_obabel_seed5519_ex32__pose07


 22 25  0  0  0  0  0  0  0  0999 V2000
  140.2780  136.7490   90.3360 O   0  0  0  0  0  0  0  0  0  0  0  0
  141.0890  137.6020   90.4670 C   0  0  0  0  0  0  0  0  0  0  0  0
  140.7180  138.9870   90.2500 N   0  0  0  0  0  0  0  0  0  0  0  0
  141.3850  139.7030   90.3590 H   0  0  0  0  0  0  0  0  0  0  0  0
  142.5210  137.2320   90.8660 C   0  0  0  0  0  0  0  0  0  0  0  0
  143.5130  138.1060   91.1540 C   0  0  0  0  0  0  0  0  0  0  0  0
  144.8100  137.6080   91.5160 C   0  0  0  0  0  0  0  0  0  0  0  0
  145.9120  138.3550   91.8350 C   0  0  0  0  0  0  0  0  0  0  0  0
  147.1120  137.7250   92.1670 C   0  0  0  0  0  0  0  0  0  0  0  0
  147.1890  136.3210   92.1740 C   0  0  0  0  0  0  0  0  0  0  0  0
  146.0670  135.5530   91.8490 C   0  0  0  0  0  0  0  0  0  0  0  0
  146.1700  133.7730   91.8610 Cl  0  0  0  0  0  0  0  0  0  0  0  0
  144.8840  136.1720   91.5220 C   0  0  0  0  0  0  0  0  0  0  0  0
  143.2110  135.6440   91.0450 S   0  0  0  0  0  0  0  0  0  0  0  0
  139.3270  139.3170   89.8650 C   0  0  0  0  0  0  0  0  0  0  0  0
  138.8040  140.4810   90.7300 C   0  0  0  0  0  0  0  0  0  0  0  0
  138.4150  141.5650   89.9380 N   0  0  0  0  0  0  0  0  0  0  0  0
  137.4400  141.1810   89.0440 C   0  0  0  0  0  0  0  0  0  0  0  0
  137.9270  140.0880   88.1390 C   0  0  0  0  0  0  0  0  0  0  0  0
  139.2800  139.7320   88.4660 C   0  0  0  0  0  0  0  0  0  0  0  0
  140.1190  140.9170   88.3100 C   0  0  0  0  0  0  0  0  0  0  0  0
  139.5350  142.0600   89.2250 C   0  0  0  0  0  0  0  0  0  0  0  0
  1  2  2  0
  2  3  1  0
  3 15  1  0
 15 16  1  0
 16 17  1  0
 17 18  1  0
 18 19  1  0
 19 20  1  0
 20 21  1  0
 21 22  1  0
  2  5  1  0
  5  6  2  0
  6  7  1  0
  7  8  2  0
  8  9  1  0
  9 10  2  0
 10 11  1  0
 11 12  1  0
 11 13  2  0
 13 14  1  0
 20 15  1  0
 14  5  1  0
 22 17  1  0
 13  7  1  0
  3  4  1  0
M  END
> <meeko>
{"is_sidechain": false}

> <source_group>
CHRNA7 canonical

> <source_system>
CHRNA7_encenicline

> <source_run>
canonical_obabel_seed5519_ex32

> <source_seed>
5519

> <vina_pose_rank>
7

> <vina_affinity_kcal_mol>
-7.2889999999999997

> <vina_rmsd_to_crystal_angstrom>
2.7322000000000002

> <minimizedAffinity>
-7.27755

> <CNNscore>
0.8351587057

> <CNNaffinity>
7.1836395264

> <CNN_VS>
5.9994792938

> <CNNaffinity_variance>
0.2739506066

$$$$
CHRNA7_encenicline__canonical_obabel_seed5519_ex32__pose08


 22 25  0  0  0  0  0  0  0  0999 V2000
  148.0150  135.1760   92.6410 O   0  0  0  0  0  0  0  0  0  0  0  0
  147.9760  136.2520   92.1470 C   0  0  0  0  0  0  0  0  0  0  0  0
  149.2090  136.9640   91.8710 N   0  0  0  0  0  0  0  0  0  0  0  0
  149.1850  137.8570   91.4580 H   0  0  0  0  0  0  0  0  0  0  0  0
  146.6200  136.8770   91.8000 C   0  0  0  0  0  0  0  0  0  0  0  0
  146.3780  138.1980   91.6310 C   0  0  0  0  0  0  0  0  0  0  0  0
  145.0510  138.6360   91.3040 C   0  0  0  0  0  0  0  0  0  0  0  0
  144.6440  139.9280   91.1000 C   0  0  0  0  0  0  0  0  0  0  0  0
  143.3110  140.2000   90.7890 C   0  0  0  0  0  0  0  0  0  0  0  0
  142.3860  139.1470   90.6850 C   0  0  0  0  0  0  0  0  0  0  0  0
  142.7950  137.8260   90.8910 C   0  0  0  0  0  0  0  0  0  0  0  0
  141.6160  136.4950   90.7560 Cl  0  0  0  0  0  0  0  0  0  0  0  0
  144.1070  137.5560   91.1980 C   0  0  0  0  0  0  0  0  0  0  0  0
  145.0980  136.0720   91.5440 S   0  0  0  0  0  0  0  0  0  0  0  0
  150.5050  136.3360   92.2160 C   0  0  0  0  0  0  0  0  0  0  0  0
  151.0000  135.4720   91.0400 C   0  0  0  0  0  0  0  0  0  0  0  0
  152.2530  135.8970   90.5920 N   0  0  0  0  0  0  0  0  0  0  0  0
  153.1710  135.8490   91.6180 C   0  0  0  0  0  0  0  0  0  0  0  0
  152.7580  136.7250   92.7640 C   0  0  0  0  0  0  0  0  0  0  0  0
  151.5050  137.3670   92.4780 C   0  0  0  0  0  0  0  0  0  0  0  0
  151.6640  138.1710   91.2690 C   0  0  0  0  0  0  0  0  0  0  0  0
  152.1610  137.2260   90.1090 C   0  0  0  0  0  0  0  0  0  0  0  0
  1  2  2  0
  2  3  1  0
  3 15  1  0
 15 16  1  0
 16 17  1  0
 17 18  1  0
 18 19  1  0
 19 20  1  0
 20 21  1  0
 21 22  1  0
  2  5  1  0
  5  6  2  0
  6  7  1  0
  7  8  2  0
  8  9  1  0
  9 10  2  0
 10 11  1  0
 11 12  1  0
 11 13  2  0
 13 14  1  0
 20 15  1  0
 14  5  1  0
 22 17  1  0
 13  7  1  0
  3  4  1  0
M  END
> <meeko>
{"is_sidechain": false}

> <source_group>
CHRNA7 canonical

> <source_system>
CHRNA7_encenicline

> <source_run>
canonical_obabel_seed5519_ex32

> <source_seed>
5519

> <vina_pose_rank>
8

> <vina_affinity_kcal_mol>
-7.0039999999999996

> <vina_rmsd_to_crystal_angstrom>
9.3417999999999992

> <minimizedAffinity>
-7.04966

> <CNNscore>
0.1948958635

> <CNNaffinity>
4.9973211288

> <CNN_VS>
0.9739572406

> <CNNaffinity_variance>
0.3738555014

$$$$
