CHRNA7_encenicline__canonical_obabel_seed4409_ex32__pose01
     RDKit          3D

 38 41  0  0  0  0  0  0  0  0999 V2000
  143.6310  140.7050   90.0120 O   0  0  0  0  0  0  0  0  0  0  0  0
  143.0830  139.6880   90.2710 C   0  0  0  0  0  0  0  0  0  0  0  0
  141.6380  139.6040   90.1810 N   0  0  0  0  0  0  0  0  0  0  0  0
  140.8640  140.7970   89.7690 C   0  0  1  0  0  0  0  0  0  0  0  0
  140.5220  140.7090   88.2680 C   0  0  0  0  0  0  0  0  0  0  0  0
  139.1410  140.7490   88.0610 N   0  0  0  0  0  0  0  0  0  0  0  0
  138.6100  141.9070   88.5870 C   0  0  0  0  0  0  0  0  0  0  0  0
  138.8680  142.0050   90.0620 C   0  0  0  0  0  0  0  0  0  0  0  0
  139.6130  140.8650   90.5180 C   0  0  0  0  0  0  0  0  0  0  0  0
  138.8380  139.6620   90.2280 C   0  0  0  0  0  0  0  0  0  0  0  0
  138.5330  139.6310   88.6820 C   0  0  0  0  0  0  0  0  0  0  0  0
  143.9090  138.4680   90.6950 C   0  0  0  0  0  0  0  0  0  0  0  0
  143.4190  137.2370   90.9710 C   0  0  0  0  0  0  0  0  0  0  0  0
  144.3210  136.1890   91.3550 C   0  0  0  0  0  0  0  0  0  0  0  0
  143.9870  134.8970   91.6640 C   0  0  0  0  0  0  0  0  0  0  0  0
  144.9800  133.9850   92.0230 C   0  0  0  0  0  0  0  0  0  0  0  0
  146.3240  134.3930   92.0690 C   0  0  0  0  0  0  0  0  0  0  0  0
  146.6720  135.7110   91.7550 C   0  0  0  0  0  0  0  0  0  0  0  0
  148.3790  136.2220   91.8130 Cl  0  0  0  0  0  0  0  0  0  0  0  0
  145.6950  136.6100   91.4000 C   0  0  0  0  0  0  0  0  0  0  0  0
  145.6320  138.3630   90.9210 S   0  0  0  0  0  0  0  0  0  0  0  0
  141.1750  138.7620   90.3920 H   0  0  0  0  0  0  0  0  0  0  0  0
  141.4731  141.6910   89.9684 H   0  0  0  0  0  0  0  0  0  0  0  0
  140.9880  141.5562   87.7436 H   0  0  0  0  0  0  0  0  0  0  0  0
  140.9048  139.7539   87.8791 H   0  0  0  0  0  0  0  0  0  0  0  0
  139.0686  142.7717   88.0849 H   0  0  0  0  0  0  0  0  0  0  0  0
  137.5220  141.8945   88.4252 H   0  0  0  0  0  0  0  0  0  0  0  0
  139.4427  142.9198   90.2692 H   0  0  0  0  0  0  0  0  0  0  0  0
  137.9040  142.0355   90.5910 H   0  0  0  0  0  0  0  0  0  0  0  0
  139.8147  140.9454   91.5964 H   0  0  0  0  0  0  0  0  0  0  0  0
  139.4159  138.7699   90.5111 H   0  0  0  0  0  0  0  0  0  0  0  0
  137.8983  139.6694   90.7998 H   0  0  0  0  0  0  0  0  0  0  0  0
  138.9363  138.7048   88.2467 H   0  0  0  0  0  0  0  0  0  0  0  0
  137.4455  139.6671   88.5209 H   0  0  0  0  0  0  0  0  0  0  0  0
  142.3387  137.0415   90.9016 H   0  0  0  0  0  0  0  0  0  0  0  0
  142.9348  134.5782   91.6291 H   0  0  0  0  0  0  0  0  0  0  0  0
  144.7111  132.9473   92.2699 H   0  0  0  0  0  0  0  0  0  0  0  0
  147.1056  133.6730   92.3531 H   0  0  0  0  0  0  0  0  0  0  0  0
  1  2  2  0
  2  3  1  0
  3  4  1  0
  4  5  1  0
  5  6  1  0
  6  7  1  0
  7  8  1  0
  8  9  1  0
  9 10  1  0
 10 11  1  0
  2 12  1  0
 12 13  2  0
 13 14  1  0
 14 15  2  0
 15 16  1  0
 16 17  2  0
 17 18  1  0
 18 19  1  0
 18 20  2  0
 20 21  1  0
  9  4  1  0
 21 12  1  0
 11  6  1  0
 20 14  1  0
  3 22  1  0
  4 23  1  6
  5 24  1  0
  5 25  1  0
  7 26  1  0
  7 27  1  0
  8 28  1  0
  8 29  1  0
  9 30  1  0
 10 31  1  0
 10 32  1  0
 11 33  1  0
 11 34  1  0
 13 35  1  0
 15 36  1  0
 16 37  1  0
 17 38  1  0
M  END
>  <meeko>  (1)
{"is_sidechain": false}

>  <source_group>  (1)
CHRNA7 canonical

>  <source_system>  (1)
CHRNA7_encenicline

>  <source_run>  (1)
canonical_obabel_seed4409_ex32

>  <source_seed>  (1)
4409

>  <vina_pose_rank>  (1)
1

>  <vina_affinity_kcal_mol>  (1)
-9.8759999999999994

>  <vina_rmsd_to_crystal_angstrom>  (1)
0.2792

$$$$
CHRNA7_encenicline__canonical_obabel_seed4409_ex32__pose02
     RDKit          3D

 38 41  0  0  0  0  0  0  0  0999 V2000
  143.8130  140.8700   89.9370 O   0  0  0  0  0  0  0  0  0  0  0  0
  143.3200  139.8290   90.2120 C   0  0  0  0  0  0  0  0  0  0  0  0
  141.8840  139.6600   90.1010 N   0  0  0  0  0  0  0  0  0  0  0  0
  141.0510  140.7960   89.6470 C   0  0  1  0  0  0  0  0  0  0  0  0
  140.6500  140.5980   88.1720 C   0  0  0  0  0  0  0  0  0  0  0  0
  139.2610  140.5770   88.0230 N   0  0  0  0  0  0  0  0  0  0  0  0
  138.7110  141.7480   88.4960 C   0  0  0  0  0  0  0  0  0  0  0  0
  139.0250  141.9530   89.9490 C   0  0  0  0  0  0  0  0  0  0  0  0
  139.8300  140.8710   90.4450 C   0  0  0  0  0  0  0  0  0  0  0  0
  139.0880  139.6260   90.2670 C   0  0  0  0  0  0  0  0  0  0  0  0
  138.7210  139.4830   88.7410 C   0  0  0  0  0  0  0  0  0  0  0  0
  144.2070  138.6690   90.6800 C   0  0  0  0  0  0  0  0  0  0  0  0
  145.5420  138.7300   90.8930 C   0  0  0  0  0  0  0  0  0  0  0  0
  146.2410  137.5570   91.3340 C   0  0  0  0  0  0  0  0  0  0  0  0
  147.5820  137.4540   91.5950 C   0  0  0  0  0  0  0  0  0  0  0  0
  148.1200  136.2380   92.0180 C   0  0  0  0  0  0  0  0  0  0  0  0
  147.2860  135.1180   92.1760 C   0  0  0  0  0  0  0  0  0  0  0  0
  145.9160  135.2170   91.9130 C   0  0  0  0  0  0  0  0  0  0  0  0
  144.8620  133.7930   92.1180 Cl  0  0  0  0  0  0  0  0  0  0  0  0
  145.3840  136.4130   91.4960 C   0  0  0  0  0  0  0  0  0  0  0  0
  143.7360  137.0340   91.0430 S   0  0  0  0  0  0  0  0  0  0  0  0
  141.4670  138.7980   90.3260 H   0  0  0  0  0  0  0  0  0  0  0  0
  141.6351  141.7211   89.7608 H   0  0  0  0  0  0  0  0  0  0  0  0
  141.0622  141.4244   87.5744 H   0  0  0  0  0  0  0  0  0  0  0  0
  141.0510  139.6328   87.8293 H   0  0  0  0  0  0  0  0  0  0  0  0
  139.1169  142.5924   87.9196 H   0  0  0  0  0  0  0  0  0  0  0  0
  137.6185  141.6875   88.3832 H   0  0  0  0  0  0  0  0  0  0  0  0
  139.5736  142.8986   90.0714 H   0  0  0  0  0  0  0  0  0  0  0  0
  138.0832  141.9863   90.5163 H   0  0  0  0  0  0  0  0  0  0  0  0
  140.0733  141.0291   91.5060 H   0  0  0  0  0  0  0  0  0  0  0  0
  139.7092  138.7745   90.5816 H   0  0  0  0  0  0  0  0  0  0  0  0
  138.1730  139.6394   90.8774 H   0  0  0  0  0  0  0  0  0  0  0  0
  139.1397  138.5443   88.3492 H   0  0  0  0  0  0  0  0  0  0  0  0
  137.6271  139.4718   88.6257 H   0  0  0  0  0  0  0  0  0  0  0  0
  146.0870  139.6714   90.7294 H   0  0  0  0  0  0  0  0  0  0  0  0
  148.2350  138.3305   91.4710 H   0  0  0  0  0  0  0  0  0  0  0  0
  149.1967  136.1561   92.2277 H   0  0  0  0  0  0  0  0  0  0  0  0
  147.7124  134.1598   92.5078 H   0  0  0  0  0  0  0  0  0  0  0  0
  1  2  2  0
  2  3  1  0
  3  4  1  0
  4  5  1  0
  5  6  1  0
  6  7  1  0
  7  8  1  0
  8  9  1  0
  9 10  1  0
 10 11  1  0
  2 12  1  0
 12 13  2  0
 13 14  1  0
 14 15  2  0
 15 16  1  0
 16 17  2  0
 17 18  1  0
 18 19  1  0
 18 20  2  0
 20 21  1  0
  9  4  1  0
 21 12  1  0
 11  6  1  0
 20 14  1  0
  3 22  1  0
  4 23  1  6
  5 24  1  0
  5 25  1  0
  7 26  1  0
  7 27  1  0
  8 28  1  0
  8 29  1  0
  9 30  1  0
 10 31  1  0
 10 32  1  0
 11 33  1  0
 11 34  1  0
 13 35  1  0
 15 36  1  0
 16 37  1  0
 17 38  1  0
M  END
>  <meeko>  (2)
{"is_sidechain": false}

>  <source_group>  (2)
CHRNA7 canonical

>  <source_system>  (2)
CHRNA7_encenicline

>  <source_run>  (2)
canonical_obabel_seed4409_ex32

>  <source_seed>  (2)
4409

>  <vina_pose_rank>  (2)
2

>  <vina_affinity_kcal_mol>  (2)
-9.1310000000000002

>  <vina_rmsd_to_crystal_angstrom>  (2)
1.8456999999999999

$$$$
CHRNA7_encenicline__canonical_obabel_seed4409_ex32__pose03
     RDKit          3D

 38 41  0  0  0  0  0  0  0  0999 V2000
  140.1010  136.5300   90.3590 O   0  0  0  0  0  0  0  0  0  0  0  0
  140.9670  137.3370   90.3830 C   0  0  0  0  0  0  0  0  0  0  0  0
  140.6890  138.7040   89.9870 N   0  0  0  0  0  0  0  0  0  0  0  0
  139.3230  139.0730   89.5520 C   0  0  1  0  0  0  0  0  0  0  0  0
  138.6070  139.8540   90.6720 C   0  0  0  0  0  0  0  0  0  0  0  0
  138.2090  141.1190   90.2310 N   0  0  0  0  0  0  0  0  0  0  0  0
  137.3730  141.0060   89.1410 C   0  0  0  0  0  0  0  0  0  0  0  0
  138.0510  140.3030   88.0020 C   0  0  0  0  0  0  0  0  0  0  0  0
  139.3880  139.9270   88.3700 C   0  0  0  0  0  0  0  0  0  0  0  0
  140.1280  141.1380   88.7180 C   0  0  0  0  0  0  0  0  0  0  0  0
  139.3480  141.8790   89.8700 C   0  0  0  0  0  0  0  0  0  0  0  0
  142.3720  136.9280   90.8390 C   0  0  0  0  0  0  0  0  0  0  0  0
  142.7900  135.6630   91.0770 C   0  0  0  0  0  0  0  0  0  0  0  0
  144.1420  135.4340   91.4980 C   0  0  0  0  0  0  0  0  0  0  0  0
  144.7170  134.2220   91.7770 C   0  0  0  0  0  0  0  0  0  0  0  0
  146.0520  134.1580   92.1790 C   0  0  0  0  0  0  0  0  0  0  0  0
  146.8070  135.3380   92.2990 C   0  0  0  0  0  0  0  0  0  0  0  0
  146.2260  136.5780   92.0150 C   0  0  0  0  0  0  0  0  0  0  0  0
  147.1890  138.0700   92.1670 Cl  0  0  0  0  0  0  0  0  0  0  0  0
  144.9120  136.6430   91.6190 C   0  0  0  0  0  0  0  0  0  0  0  0
  143.7420  137.9550   91.1540 S   0  0  0  0  0  0  0  0  0  0  0  0
  141.4030  139.3820   90.0070 H   0  0  0  0  0  0  0  0  0  0  0  0
  138.7717  138.1495   89.3212 H   0  0  0  0  0  0  0  0  0  0  0  0
  137.7186  139.2895   90.9917 H   0  0  0  0  0  0  0  0  0  0  0  0
  139.3076  139.9818   91.5103 H   0  0  0  0  0  0  0  0  0  0  0  0
  136.4793  140.4350   89.4330 H   0  0  0  0  0  0  0  0  0  0  0  0
  137.0981  142.0180   88.8090 H   0  0  0  0  0  0  0  0  0  0  0  0
  137.4793  139.4000   87.7416 H   0  0  0  0  0  0  0  0  0  0  0  0
  138.0965  140.9836   87.1390 H   0  0  0  0  0  0  0  0  0  0  0  0
  139.8791  139.3974   87.5403 H   0  0  0  0  0  0  0  0  0  0  0  0
  141.1374  140.8709   89.0640 H   0  0  0  0  0  0  0  0  0  0  0  0
  140.2191  141.7930   87.8390 H   0  0  0  0  0  0  0  0  0  0  0  0
  140.0057  141.9926   90.7444 H   0  0  0  0  0  0  0  0  0  0  0  0
  139.0310  142.8722   89.5193 H   0  0  0  0  0  0  0  0  0  0  0  0
  142.0985  134.8172   90.9486 H   0  0  0  0  0  0  0  0  0  0  0  0
  144.1261  133.2989   91.6841 H   0  0  0  0  0  0  0  0  0  0  0  0
  146.5134  133.1846   92.4019 H   0  0  0  0  0  0  0  0  0  0  0  0
  147.8586  135.2857   92.6175 H   0  0  0  0  0  0  0  0  0  0  0  0
  1  2  2  0
  2  3  1  0
  3  4  1  0
  4  5  1  0
  5  6  1  0
  6  7  1  0
  7  8  1  0
  8  9  1  0
  9 10  1  0
 10 11  1  0
  2 12  1  0
 12 13  2  0
 13 14  1  0
 14 15  2  0
 15 16  1  0
 16 17  2  0
 17 18  1  0
 18 19  1  0
 18 20  2  0
 20 21  1  0
  9  4  1  0
 21 12  1  0
 11  6  1  0
 20 14  1  0
  3 22  1  0
  4 23  1  6
  5 24  1  0
  5 25  1  0
  7 26  1  0
  7 27  1  0
  8 28  1  0
  8 29  1  0
  9 30  1  0
 10 31  1  0
 10 32  1  0
 11 33  1  0
 11 34  1  0
 13 35  1  0
 15 36  1  0
 16 37  1  0
 17 38  1  0
M  END
>  <meeko>  (3)
{"is_sidechain": false}

>  <source_group>  (3)
CHRNA7 canonical

>  <source_system>  (3)
CHRNA7_encenicline

>  <source_run>  (3)
canonical_obabel_seed4409_ex32

>  <source_seed>  (3)
4409

>  <vina_pose_rank>  (3)
3

>  <vina_affinity_kcal_mol>  (3)
-7.9850000000000003

>  <vina_rmsd_to_crystal_angstrom>  (3)
2.3376000000000001

$$$$
CHRNA7_encenicline__canonical_obabel_seed4409_ex32__pose04
     RDKit          3D

 38 41  0  0  0  0  0  0  0  0999 V2000
  145.6650  138.5050   93.1570 O   0  0  0  0  0  0  0  0  0  0  0  0
  145.4760  138.2850   92.0090 C   0  0  0  0  0  0  0  0  0  0  0  0
  146.5640  137.8020   91.1800 N   0  0  0  0  0  0  0  0  0  0  0  0
  147.9010  137.5930   91.7820 C   0  0  1  0  0  0  0  0  0  0  0  0
  148.1210  136.0930   92.0640 C   0  0  0  0  0  0  0  0  0  0  0  0
  149.2470  135.6120   91.3920 N   0  0  0  0  0  0  0  0  0  0  0  0
  150.3680  136.3210   91.7660 C   0  0  0  0  0  0  0  0  0  0  0  0
  150.2210  137.7810   91.4530 C   0  0  0  0  0  0  0  0  0  0  0  0
  148.9400  138.0400   90.8590 C   0  0  0  0  0  0  0  0  0  0  0  0
  148.8330  137.2560   89.6310 C   0  0  0  0  0  0  0  0  0  0  0  0
  149.0580  135.7380   89.9940 C   0  0  0  0  0  0  0  0  0  0  0  0
  144.0830  138.5110   91.4130 C   0  0  0  0  0  0  0  0  0  0  0  0
  143.1380  137.5600   91.2260 C   0  0  0  0  0  0  0  0  0  0  0  0
  141.8730  137.9240   90.6560 C   0  0  0  0  0  0  0  0  0  0  0  0
  140.8180  137.0870   90.4060 C   0  0  0  0  0  0  0  0  0  0  0  0
  139.6450  137.5900   89.8430 C   0  0  0  0  0  0  0  0  0  0  0  0
  139.5450  138.9570   89.5320 C   0  0  0  0  0  0  0  0  0  0  0  0
  140.6180  139.8170   89.7860 C   0  0  0  0  0  0  0  0  0  0  0  0
  140.4850  141.5510   89.3910 Cl  0  0  0  0  0  0  0  0  0  0  0  0
  141.7740  139.3240   90.3400 C   0  0  0  0  0  0  0  0  0  0  0  0
  143.3850  140.0000   90.8430 S   0  0  0  0  0  0  0  0  0  0  0  0
  146.4150  137.6150   90.2250 H   0  0  0  0  0  0  0  0  0  0  0  0
  147.9539  138.1679   92.7183 H   0  0  0  0  0  0  0  0  0  0  0  0
  148.2596  135.9479   93.1456 H   0  0  0  0  0  0  0  0  0  0  0  0
  147.2400  135.5390   91.7078 H   0  0  0  0  0  0  0  0  0  0  0  0
  150.5232  136.2007   92.8483 H   0  0  0  0  0  0  0  0  0  0  0  0
  151.2287  135.9308   91.2030 H   0  0  0  0  0  0  0  0  0  0  0  0
  150.3134  138.3619   92.3826 H   0  0  0  0  0  0  0  0  0  0  0  0
  151.0087  138.0744   90.7435 H   0  0  0  0  0  0  0  0  0  0  0  0
  148.8274  139.1128   90.6436 H   0  0  0  0  0  0  0  0  0  0  0  0
  147.8341  137.3893   89.1901 H   0  0  0  0  0  0  0  0  0  0  0  0
  149.5866  137.5879   88.9016 H   0  0  0  0  0  0  0  0  0  0  0  0
  148.1779  135.1532   89.6884 H   0  0  0  0  0  0  0  0  0  0  0  0
  149.9476  135.3621   89.4674 H   0  0  0  0  0  0  0  0  0  0  0  0
  143.3386  136.5161   91.5090 H   0  0  0  0  0  0  0  0  0  0  0  0
  140.8958  136.0171   90.6494 H   0  0  0  0  0  0  0  0  0  0  0  0
  138.7984  136.9169   89.6425 H   0  0  0  0  0  0  0  0  0  0  0  0
  138.6196  139.3517   89.0873 H   0  0  0  0  0  0  0  0  0  0  0  0
  1  2  2  0
  2  3  1  0
  3  4  1  0
  4  5  1  0
  5  6  1  0
  6  7  1  0
  7  8  1  0
  8  9  1  0
  9 10  1  0
 10 11  1  0
  2 12  1  0
 12 13  2  0
 13 14  1  0
 14 15  2  0
 15 16  1  0
 16 17  2  0
 17 18  1  0
 18 19  1  0
 18 20  2  0
 20 21  1  0
  9  4  1  0
 21 12  1  0
 11  6  1  0
 20 14  1  0
  3 22  1  0
  4 23  1  1
  5 24  1  0
  5 25  1  0
  7 26  1  0
  7 27  1  0
  8 28  1  0
  8 29  1  0
  9 30  1  0
 10 31  1  0
 10 32  1  0
 11 33  1  0
 11 34  1  0
 13 35  1  0
 15 36  1  0
 16 37  1  0
 17 38  1  0
M  END
>  <meeko>  (4)
{"is_sidechain": false}

>  <source_group>  (4)
CHRNA7 canonical

>  <source_system>  (4)
CHRNA7_encenicline

>  <source_run>  (4)
canonical_obabel_seed4409_ex32

>  <source_seed>  (4)
4409

>  <vina_pose_rank>  (4)
4

>  <vina_affinity_kcal_mol>  (4)
-7.6529999999999996

>  <vina_rmsd_to_crystal_angstrom>  (4)
7.9942000000000002

$$$$
CHRNA7_encenicline__canonical_obabel_seed4409_ex32__pose05
     RDKit          3D

 38 41  0  0  0  0  0  0  0  0999 V2000
  146.1540  138.9500   92.8960 O   0  0  0  0  0  0  0  0  0  0  0  0
  145.8390  138.2840   91.9680 C   0  0  0  0  0  0  0  0  0  0  0  0
  146.8300  137.4650   91.2990 N   0  0  0  0  0  0  0  0  0  0  0  0
  148.2300  137.4740   91.7830 C   0  0  1  0  0  0  0  0  0  0  0  0
  148.6990  136.0320   92.0620 C   0  0  0  0  0  0  0  0  0  0  0  0
  149.8240  135.7100   91.2990 N   0  0  0  0  0  0  0  0  0  0  0  0
  150.8510  136.5890   91.5650 C   0  0  0  0  0  0  0  0  0  0  0  0
  150.4580  138.0020   91.2500 C   0  0  0  0  0  0  0  0  0  0  0  0
  149.1060  138.0510   90.7680 C   0  0  0  0  0  0  0  0  0  0  0  0
  149.0170  137.2290   89.5630 C   0  0  0  0  0  0  0  0  0  0  0  0
  149.5000  135.7720   89.9220 C   0  0  0  0  0  0  0  0  0  0  0  0
  144.3830  138.2940   91.4880 C   0  0  0  0  0  0  0  0  0  0  0  0
  143.6790  139.3880   91.1170 C   0  0  0  0  0  0  0  0  0  0  0  0
  142.3190  139.2400   90.6860 C   0  0  0  0  0  0  0  0  0  0  0  0
  141.4770  140.2400   90.2780 C   0  0  0  0  0  0  0  0  0  0  0  0
  140.1720  139.9390   89.8870 C   0  0  0  0  0  0  0  0  0  0  0  0
  139.7200  138.6090   89.9110 C   0  0  0  0  0  0  0  0  0  0  0  0
  140.5750  137.5820   90.3250 C   0  0  0  0  0  0  0  0  0  0  0  0
  139.9970  135.8960   90.3510 Cl  0  0  0  0  0  0  0  0  0  0  0  0
  141.8610  137.8760   90.7110 C   0  0  0  0  0  0  0  0  0  0  0  0
  143.3020  136.9420   91.3060 S   0  0  0  0  0  0  0  0  0  0  0  0
  146.5760  136.9070   90.5290 H   0  0  0  0  0  0  0  0  0  0  0  0
  148.2747  138.0724   92.7049 H   0  0  0  0  0  0  0  0  0  0  0  0
  148.9496  135.9363   93.1288 H   0  0  0  0  0  0  0  0  0  0  0  0
  147.8856  135.3427   91.7912 H   0  0  0  0  0  0  0  0  0  0  0  0
  151.1141  136.5199   92.6308 H   0  0  0  0  0  0  0  0  0  0  0  0
  151.7097  136.3195   90.9325 H   0  0  0  0  0  0  0  0  0  0  0  0
  150.5401  138.6126   92.1613 H   0  0  0  0  0  0  0  0  0  0  0  0
  151.1286  138.3931   90.4707 H   0  0  0  0  0  0  0  0  0  0  0  0
  148.8127  139.0889   90.5520 H   0  0  0  0  0  0  0  0  0  0  0  0
  147.9760  137.1992   89.2089 H   0  0  0  0  0  0  0  0  0  0  0  0
  149.6477  137.6525   88.7675 H   0  0  0  0  0  0  0  0  0  0  0  0
  148.6963  135.0541   89.7014 H   0  0  0  0  0  0  0  0  0  0  0  0
  150.3885  135.5215   89.3238 H   0  0  0  0  0  0  0  0  0  0  0  0
  144.1460  140.3835   91.1456 H   0  0  0  0  0  0  0  0  0  0  0  0
  141.8300  141.2817   90.2585 H   0  0  0  0  0  0  0  0  0  0  0  0
  139.4967  140.7433   89.5598 H   0  0  0  0  0  0  0  0  0  0  0  0
  138.6903  138.3744   89.6032 H   0  0  0  0  0  0  0  0  0  0  0  0
  1  2  2  0
  2  3  1  0
  3  4  1  0
  4  5  1  0
  5  6  1  0
  6  7  1  0
  7  8  1  0
  8  9  1  0
  9 10  1  0
 10 11  1  0
  2 12  1  0
 12 13  2  0
 13 14  1  0
 14 15  2  0
 15 16  1  0
 16 17  2  0
 17 18  1  0
 18 19  1  0
 18 20  2  0
 20 21  1  0
  9  4  1  0
 21 12  1  0
 11  6  1  0
 20 14  1  0
  3 22  1  0
  4 23  1  1
  5 24  1  0
  5 25  1  0
  7 26  1  0
  7 27  1  0
  8 28  1  0
  8 29  1  0
  9 30  1  0
 10 31  1  0
 10 32  1  0
 11 33  1  0
 11 34  1  0
 13 35  1  0
 15 36  1  0
 16 37  1  0
 17 38  1  0
M  END
>  <meeko>  (5)
{"is_sidechain": false}

>  <source_group>  (5)
CHRNA7 canonical

>  <source_system>  (5)
CHRNA7_encenicline

>  <source_run>  (5)
canonical_obabel_seed4409_ex32

>  <source_seed>  (5)
4409

>  <vina_pose_rank>  (5)
5

>  <vina_affinity_kcal_mol>  (5)
-7.5060000000000002

>  <vina_rmsd_to_crystal_angstrom>  (5)
8.1453000000000007

$$$$
CHRNA7_encenicline__canonical_obabel_seed4409_ex32__pose06
     RDKit          3D

 38 41  0  0  0  0  0  0  0  0999 V2000
  144.8650  140.7320   91.1780 O   0  0  0  0  0  0  0  0  0  0  0  0
  144.2670  139.7790   90.8100 C   0  0  0  0  0  0  0  0  0  0  0  0
  144.8870  138.4700   90.8770 N   0  0  0  0  0  0  0  0  0  0  0  0
  146.2650  138.3430   91.4040 C   0  0  1  0  0  0  0  0  0  0  0  0
  146.3280  137.2030   92.4410 C   0  0  0  0  0  0  0  0  0  0  0  0
  147.2550  136.2270   92.0640 N   0  0  0  0  0  0  0  0  0  0  0  0
  148.5060  136.7860   91.9160 C   0  0  0  0  0  0  0  0  0  0  0  0
  148.5040  137.8620   90.8710 C   0  0  0  0  0  0  0  0  0  0  0  0
  147.1880  138.0240   90.3190 C   0  0  0  0  0  0  0  0  0  0  0  0
  146.7780  136.7530   89.7260 C   0  0  0  0  0  0  0  0  0  0  0  0
  146.8570  135.6400   90.8380 C   0  0  0  0  0  0  0  0  0  0  0  0
  142.8420  139.9390   90.2690 C   0  0  0  0  0  0  0  0  0  0  0  0
  141.7540  140.2870   90.9950 C   0  0  0  0  0  0  0  0  0  0  0  0
  140.4790  140.4000   90.3460 C   0  0  0  0  0  0  0  0  0  0  0  0
  139.2900  140.7420   90.9350 C   0  0  0  0  0  0  0  0  0  0  0  0
  138.1260  140.8100   90.1690 C   0  0  0  0  0  0  0  0  0  0  0  0
  138.1730  140.5280   88.7930 C   0  0  0  0  0  0  0  0  0  0  0  0
  139.3830  140.1790   88.1860 C   0  0  0  0  0  0  0  0  0  0  0  0
  139.4360  139.8250   86.4390 Cl  0  0  0  0  0  0  0  0  0  0  0  0
  140.5310  140.1120   88.9380 C   0  0  0  0  0  0  0  0  0  0  0  0
  142.2810  139.7220   88.6350 S   0  0  0  0  0  0  0  0  0  0  0  0
  144.3960  137.6720   90.5750 H   0  0  0  0  0  0  0  0  0  0  0  0
  146.5470  139.2980   91.8715 H   0  0  0  0  0  0  0  0  0  0  0  0
  146.6225  137.6202   93.4153 H   0  0  0  0  0  0  0  0  0  0  0  0
  145.3349  136.7342   92.5038 H   0  0  0  0  0  0  0  0  0  0  0  0
  148.8199  137.2205   92.8766 H   0  0  0  0  0  0  0  0  0  0  0  0
  149.2029  135.9963   91.5987 H   0  0  0  0  0  0  0  0  0  0  0  0
  148.8246  138.8103   91.3271 H   0  0  0  0  0  0  0  0  0  0  0  0
  149.1956  137.5764   90.0647 H   0  0  0  0  0  0  0  0  0  0  0  0
  147.1845  138.8236   89.5636 H   0  0  0  0  0  0  0  0  0  0  0  0
  145.7466  136.8326   89.3520 H   0  0  0  0  0  0  0  0  0  0  0  0
  147.4392  136.4963   88.8852 H   0  0  0  0  0  0  0  0  0  0  0  0
  145.8691  135.1715   90.9591 H   0  0  0  0  0  0  0  0  0  0  0  0
  147.5905  134.8758   90.5414 H   0  0  0  0  0  0  0  0  0  0  0  0
  141.8463  140.4816   92.0737 H   0  0  0  0  0  0  0  0  0  0  0  0
  139.2533  140.9630   92.0119 H   0  0  0  0  0  0  0  0  0  0  0  0
  137.1715  141.0843   90.6420 H   0  0  0  0  0  0  0  0  0  0  0  0
  137.2539  140.5821   88.1911 H   0  0  0  0  0  0  0  0  0  0  0  0
  1  2  2  0
  2  3  1  0
  3  4  1  0
  4  5  1  0
  5  6  1  0
  6  7  1  0
  7  8  1  0
  8  9  1  0
  9 10  1  0
 10 11  1  0
  2 12  1  0
 12 13  2  0
 13 14  1  0
 14 15  2  0
 15 16  1  0
 16 17  2  0
 17 18  1  0
 18 19  1  0
 18 20  2  0
 20 21  1  0
  9  4  1  0
 21 12  1  0
 11  6  1  0
 20 14  1  0
  3 22  1  0
  4 23  1  1
  5 24  1  0
  5 25  1  0
  7 26  1  0
  7 27  1  0
  8 28  1  0
  8 29  1  0
  9 30  1  0
 10 31  1  0
 10 32  1  0
 11 33  1  0
 11 34  1  0
 13 35  1  0
 15 36  1  0
 16 37  1  0
 17 38  1  0
M  END
>  <meeko>  (6)
{"is_sidechain": false}

>  <source_group>  (6)
CHRNA7 canonical

>  <source_system>  (6)
CHRNA7_encenicline

>  <source_run>  (6)
canonical_obabel_seed4409_ex32

>  <source_seed>  (6)
4409

>  <vina_pose_rank>  (6)
6

>  <vina_affinity_kcal_mol>  (6)
-7.391

>  <vina_rmsd_to_crystal_angstrom>  (6)
7.8253000000000004

$$$$
CHRNA7_encenicline__canonical_obabel_seed4409_ex32__pose07
     RDKit          3D

 38 41  0  0  0  0  0  0  0  0999 V2000
  144.9570  140.7990   91.2890 O   0  0  0  0  0  0  0  0  0  0  0  0
  144.3860  139.8970   90.7760 C   0  0  0  0  0  0  0  0  0  0  0  0
  145.0640  138.6290   90.5890 N   0  0  0  0  0  0  0  0  0  0  0  0
  146.4660  138.4790   91.0410 C   0  0  1  0  0  0  0  0  0  0  0  0
  146.5230  137.5730   92.2870 C   0  0  0  0  0  0  0  0  0  0  0  0
  147.3330  136.4560   92.0650 N   0  0  0  0  0  0  0  0  0  0  0  0
  148.6080  136.8500   91.7220 C   0  0  0  0  0  0  0  0  0  0  0  0
  148.6070  137.6860   90.4770 C   0  0  0  0  0  0  0  0  0  0  0  0
  147.2670  137.8580   89.9900 C   0  0  0  0  0  0  0  0  0  0  0  0
  146.7070  136.5400   89.7040 C   0  0  0  0  0  0  0  0  0  0  0  0
  146.7880  135.6730   91.0180 C   0  0  0  0  0  0  0  0  0  0  0  0
  142.9350  140.0800   90.3180 C   0  0  0  0  0  0  0  0  0  0  0  0
  142.5240  140.2530   89.0400 C   0  0  0  0  0  0  0  0  0  0  0  0
  141.1240  140.4100   88.7640 C   0  0  0  0  0  0  0  0  0  0  0  0
  140.5500  140.5900   87.5340 C   0  0  0  0  0  0  0  0  0  0  0  0
  139.1660  140.7300   87.4230 C   0  0  0  0  0  0  0  0  0  0  0  0
  138.3610  140.6860   88.5750 C   0  0  0  0  0  0  0  0  0  0  0  0
  138.9410  140.5000   89.8330 C   0  0  0  0  0  0  0  0  0  0  0  0
  137.9150  140.4420   91.2900 Cl  0  0  0  0  0  0  0  0  0  0  0  0
  140.3040  140.3630   89.9450 C   0  0  0  0  0  0  0  0  0  0  0  0
  141.4950  140.1110   91.2950 S   0  0  0  0  0  0  0  0  0  0  0  0
  144.5960  137.8730   90.1660 H   0  0  0  0  0  0  0  0  0  0  0  0
  146.8617  139.4775   91.2785 H   0  0  0  0  0  0  0  0  0  0  0  0
  146.9303  138.1492   93.1309 H   0  0  0  0  0  0  0  0  0  0  0  0
  145.5038  137.2244   92.5102 H   0  0  0  0  0  0  0  0  0  0  0  0
  149.0349  137.4383   92.5476 H   0  0  0  0  0  0  0  0  0  0  0  0
  149.2094  135.9486   91.5328 H   0  0  0  0  0  0  0  0  0  0  0  0
  149.0400  138.6718   90.7021 H   0  0  0  0  0  0  0  0  0  0  0  0
  149.2043  137.1777   89.7057 H   0  0  0  0  0  0  0  0  0  0  0  0
  147.2659  138.4838   89.0853 H   0  0  0  0  0  0  0  0  0  0  0  0
  145.6579  136.6417   89.3894 H   0  0  0  0  0  0  0  0  0  0  0  0
  147.2722  136.0553   88.8943 H   0  0  0  0  0  0  0  0  0  0  0  0
  145.7790  135.3363   91.2984 H   0  0  0  0  0  0  0  0  0  0  0  0
  147.4298  134.7972   90.8416 H   0  0  0  0  0  0  0  0  0  0  0  0
  143.2566  140.2731   88.2197 H   0  0  0  0  0  0  0  0  0  0  0  0
  141.1801  140.6243   86.6330 H   0  0  0  0  0  0  0  0  0  0  0  0
  138.7051  140.8747   86.4348 H   0  0  0  0  0  0  0  0  0  0  0  0
  137.2704  140.7984   88.4858 H   0  0  0  0  0  0  0  0  0  0  0  0
  1  2  2  0
  2  3  1  0
  3  4  1  0
  4  5  1  0
  5  6  1  0
  6  7  1  0
  7  8  1  0
  8  9  1  0
  9 10  1  0
 10 11  1  0
  2 12  1  0
 12 13  2  0
 13 14  1  0
 14 15  2  0
 15 16  1  0
 16 17  2  0
 17 18  1  0
 18 19  1  0
 18 20  2  0
 20 21  1  0
  9  4  1  0
 21 12  1  0
 11  6  1  0
 20 14  1  0
  3 22  1  0
  4 23  1  1
  5 24  1  0
  5 25  1  0
  7 26  1  0
  7 27  1  0
  8 28  1  0
  8 29  1  0
  9 30  1  0
 10 31  1  0
 10 32  1  0
 11 33  1  0
 11 34  1  0
 13 35  1  0
 15 36  1  0
 16 37  1  0
 17 38  1  0
M  END
>  <meeko>  (7)
{"is_sidechain": false}

>  <source_group>  (7)
CHRNA7 canonical

>  <source_system>  (7)
CHRNA7_encenicline

>  <source_run>  (7)
canonical_obabel_seed4409_ex32

>  <source_seed>  (7)
4409

>  <vina_pose_rank>  (7)
7

>  <vina_affinity_kcal_mol>  (7)
-7.2329999999999997

>  <vina_rmsd_to_crystal_angstrom>  (7)
7.9027000000000003

$$$$
CHRNA7_encenicline__canonical_obabel_seed4409_ex32__pose08
     RDKit          3D

 38 41  0  0  0  0  0  0  0  0999 V2000
  140.2370  136.6700   90.3590 O   0  0  0  0  0  0  0  0  0  0  0  0
  141.0700  137.5120   90.3620 C   0  0  0  0  0  0  0  0  0  0  0  0
  140.7330  138.8600   89.9490 N   0  0  0  0  0  0  0  0  0  0  0  0
  139.3490  139.1670   89.5230 C   0  0  1  0  0  0  0  0  0  0  0  0
  138.6120  139.9300   90.6420 C   0  0  0  0  0  0  0  0  0  0  0  0
  138.1570  141.1720   90.1920 N   0  0  0  0  0  0  0  0  0  0  0  0
  137.3160  141.0120   89.1120 C   0  0  0  0  0  0  0  0  0  0  0  0
  138.0120  140.3260   87.9740 C   0  0  0  0  0  0  0  0  0  0  0  0
  139.3670  140.0100   88.3320 C   0  0  0  0  0  0  0  0  0  0  0  0
  140.0580  141.2540   88.6590 C   0  0  0  0  0  0  0  0  0  0  0  0
  139.2600  141.9750   89.8110 C   0  0  0  0  0  0  0  0  0  0  0  0
  142.4960  137.1670   90.8080 C   0  0  0  0  0  0  0  0  0  0  0  0
  143.4640  138.0580   91.1240 C   0  0  0  0  0  0  0  0  0  0  0  0
  144.7560  137.5820   91.5280 C   0  0  0  0  0  0  0  0  0  0  0  0
  145.8350  138.3480   91.8800 C   0  0  0  0  0  0  0  0  0  0  0  0
  147.0340  137.7380   92.2510 C   0  0  0  0  0  0  0  0  0  0  0  0
  147.1340  136.3360   92.2640 C   0  0  0  0  0  0  0  0  0  0  0  0
  146.0360  135.5480   91.9070 C   0  0  0  0  0  0  0  0  0  0  0  0
  146.1680  133.7700   91.9270 Cl  0  0  0  0  0  0  0  0  0  0  0  0
  144.8540  136.1470   91.5410 C   0  0  0  0  0  0  0  0  0  0  0  0
  143.2060  135.5910   91.0130 S   0  0  0  0  0  0  0  0  0  0  0  0
  141.4190  139.5660   89.9510 H   0  0  0  0  0  0  0  0  0  0  0  0
  138.8347  138.2190   89.3068 H   0  0  0  0  0  0  0  0  0  0  0  0
  137.7513  139.3324   90.9769 H   0  0  0  0  0  0  0  0  0  0  0  0
  139.3151  140.0964   91.4714 H   0  0  0  0  0  0  0  0  0  0  0  0
  136.4502  140.4070   89.4190 H   0  0  0  0  0  0  0  0  0  0  0  0
  136.9952  142.0078   88.7722 H   0  0  0  0  0  0  0  0  0  0  0  0
  137.4761  139.3972   87.7286 H   0  0  0  0  0  0  0  0  0  0  0  0
  138.0209  140.9990   87.1039 H   0  0  0  0  0  0  0  0  0  0  0  0
  139.8722  139.4922   87.5034 H   0  0  0  0  0  0  0  0  0  0  0  0
  141.0813  141.0334   88.9970 H   0  0  0  0  0  0  0  0  0  0  0  0
  140.1118  141.9022   87.7719 H   0  0  0  0  0  0  0  0  0  0  0  0
  139.9212  142.1255   90.6771 H   0  0  0  0  0  0  0  0  0  0  0  0
  138.8987  142.9505   89.4534 H   0  0  0  0  0  0  0  0  0  0  0  0
  143.2623  139.1381   91.0716 H   0  0  0  0  0  0  0  0  0  0  0  0
  145.7566  139.4452   91.8703 H   0  0  0  0  0  0  0  0  0  0  0  0
  147.9005  138.3541   92.5332 H   0  0  0  0  0  0  0  0  0  0  0  0
  148.0801  135.8570   92.5563 H   0  0  0  0  0  0  0  0  0  0  0  0
  1  2  2  0
  2  3  1  0
  3  4  1  0
  4  5  1  0
  5  6  1  0
  6  7  1  0
  7  8  1  0
  8  9  1  0
  9 10  1  0
 10 11  1  0
  2 12  1  0
 12 13  2  0
 13 14  1  0
 14 15  2  0
 15 16  1  0
 16 17  2  0
 17 18  1  0
 18 19  1  0
 18 20  2  0
 20 21  1  0
  9  4  1  0
 21 12  1  0
 11  6  1  0
 20 14  1  0
  3 22  1  0
  4 23  1  6
  5 24  1  0
  5 25  1  0
  7 26  1  0
  7 27  1  0
  8 28  1  0
  8 29  1  0
  9 30  1  0
 10 31  1  0
 10 32  1  0
 11 33  1  0
 11 34  1  0
 13 35  1  0
 15 36  1  0
 16 37  1  0
 17 38  1  0
M  END
>  <meeko>  (8)
{"is_sidechain": false}

>  <source_group>  (8)
CHRNA7 canonical

>  <source_system>  (8)
CHRNA7_encenicline

>  <source_run>  (8)
canonical_obabel_seed4409_ex32

>  <source_seed>  (8)
4409

>  <vina_pose_rank>  (8)
8

>  <vina_affinity_kcal_mol>  (8)
-7.2050000000000001

>  <vina_rmsd_to_crystal_angstrom>  (8)
2.7557999999999998

$$$$
CHRNA7_encenicline__canonical_obabel_seed4409_ex32__pose09
     RDKit          3D

 38 41  0  0  0  0  0  0  0  0999 V2000
  147.2420  135.0860   92.6280 O   0  0  0  0  0  0  0  0  0  0  0  0
  147.0870  135.9720   91.8590 C   0  0  0  0  0  0  0  0  0  0  0  0
  148.2390  136.5910   91.2300 N   0  0  0  0  0  0  0  0  0  0  0  0
  149.5980  136.1060   91.5630 C   0  0  1  0  0  0  0  0  0  0  0  0
  150.2810  135.5490   90.2990 C   0  0  0  0  0  0  0  0  0  0  0  0
  151.4730  136.2250   90.0280 N   0  0  0  0  0  0  0  0  0  0  0  0
  152.3340  136.1260   91.1000 C   0  0  0  0  0  0  0  0  0  0  0  0
  151.7320  136.7130   92.3420 C   0  0  0  0  0  0  0  0  0  0  0  0
  150.4100  137.2070   92.0730 C   0  0  0  0  0  0  0  0  0  0  0  0
  150.5020  138.2290   91.0340 C   0  0  0  0  0  0  0  0  0  0  0  0
  151.1990  137.5910   89.7730 C   0  0  0  0  0  0  0  0  0  0  0  0
  145.6690  136.4540   91.5330 C   0  0  0  0  0  0  0  0  0  0  0  0
  144.5880  135.6620   91.3440 C   0  0  0  0  0  0  0  0  0  0  0  0
  143.3180  136.2600   91.0460 C   0  0  0  0  0  0  0  0  0  0  0  0
  142.1360  135.6030   90.8310 C   0  0  0  0  0  0  0  0  0  0  0  0
  140.9760  136.3260   90.5470 C   0  0  0  0  0  0  0  0  0  0  0  0
  141.0220  137.7290   90.4830 C   0  0  0  0  0  0  0  0  0  0  0  0
  142.2250  138.4060   90.7020 C   0  0  0  0  0  0  0  0  0  0  0  0
  142.2760  140.1860   90.6200 Cl  0  0  0  0  0  0  0  0  0  0  0  0
  143.3690  137.6960   90.9810 C   0  0  0  0  0  0  0  0  0  0  0  0
  145.1090  138.0890   91.3290 S   0  0  0  0  0  0  0  0  0  0  0  0
  148.1180  137.3260   90.5880 H   0  0  0  0  0  0  0  0  0  0  0  0
  149.5086  135.3176   92.3248 H   0  0  0  0  0  0  0  0  0  0  0  0
  150.5005  134.4818   90.4507 H   0  0  0  0  0  0  0  0  0  0  0  0
  149.6006  135.6882   89.4460 H   0  0  0  0  0  0  0  0  0  0  0  0
  152.5613  135.0648   91.2796 H   0  0  0  0  0  0  0  0  0  0  0  0
  153.2498  136.6866   90.8611 H   0  0  0  0  0  0  0  0  0  0  0  0
  151.6776  135.9372   93.1199 H   0  0  0  0  0  0  0  0  0  0  0  0
  152.3619  137.5476   92.6836 H   0  0  0  0  0  0  0  0  0  0  0  0
  149.9630  137.6238   92.9876 H   0  0  0  0  0  0  0  0  0  0  0  0
  149.4940  138.5779   90.7651 H   0  0  0  0  0  0  0  0  0  0  0  0
  151.0870  139.0869   91.3969 H   0  0  0  0  0  0  0  0  0  0  0  0
  150.5315  137.6752   88.9028 H   0  0  0  0  0  0  0  0  0  0  0  0
  152.1397  138.1219   89.5651 H   0  0  0  0  0  0  0  0  0  0  0  0
  144.6821  134.5686   91.4182 H   0  0  0  0  0  0  0  0  0  0  0  0
  142.1004  134.5048   90.8821 H   0  0  0  0  0  0  0  0  0  0  0  0
  140.0268  135.7979   90.3735 H   0  0  0  0  0  0  0  0  0  0  0  0
  140.1070  138.2971   90.2595 H   0  0  0  0  0  0  0  0  0  0  0  0
  1  2  2  0
  2  3  1  0
  3  4  1  0
  4  5  1  0
  5  6  1  0
  6  7  1  0
  7  8  1  0
  8  9  1  0
  9 10  1  0
 10 11  1  0
  2 12  1  0
 12 13  2  0
 13 14  1  0
 14 15  2  0
 15 16  1  0
 16 17  2  0
 17 18  1  0
 18 19  1  0
 18 20  2  0
 20 21  1  0
  9  4  1  0
 21 12  1  0
 11  6  1  0
 20 14  1  0
  3 22  1  0
  4 23  1  1
  5 24  1  0
  5 25  1  0
  7 26  1  0
  7 27  1  0
  8 28  1  0
  8 29  1  0
  9 30  1  0
 10 31  1  0
 10 32  1  0
 11 33  1  0
 11 34  1  0
 13 35  1  0
 15 36  1  0
 16 37  1  0
 17 38  1  0
M  END
>  <meeko>  (9)
{"is_sidechain": false}

>  <source_group>  (9)
CHRNA7 canonical

>  <source_system>  (9)
CHRNA7_encenicline

>  <source_run>  (9)
canonical_obabel_seed4409_ex32

>  <source_seed>  (9)
4409

>  <vina_pose_rank>  (9)
9

>  <vina_affinity_kcal_mol>  (9)
-6.992

>  <vina_rmsd_to_crystal_angstrom>  (9)
8.6414000000000009

$$$$
CHRNA7_encenicline__canonical_obabel_seed4409_ex32__pose10
     RDKit          3D

 38 41  0  0  0  0  0  0  0  0999 V2000
  147.8440  135.1780   92.6150 O   0  0  0  0  0  0  0  0  0  0  0  0
  147.8040  136.2200   92.0530 C   0  0  0  0  0  0  0  0  0  0  0  0
  149.0380  136.8890   91.6880 N   0  0  0  0  0  0  0  0  0  0  0  0
  150.3350  136.2610   92.0290 C   0  0  1  0  0  0  0  0  0  0  0  0
  150.8590  135.4540   90.8250 C   0  0  0  0  0  0  0  0  0  0  0  0
  152.1150  135.9110   90.4170 N   0  0  0  0  0  0  0  0  0  0  0  0
  153.0160  135.8290   91.4560 C   0  0  0  0  0  0  0  0  0  0  0  0
  152.5750  136.6510   92.6300 C   0  0  0  0  0  0  0  0  0  0  0  0
  151.3190  137.2900   92.3510 C   0  0  0  0  0  0  0  0  0  0  0  0
  151.4890  138.1470   91.1800 C   0  0  0  0  0  0  0  0  0  0  0  0
  152.0160  137.2580   89.9900 C   0  0  0  0  0  0  0  0  0  0  0  0
  146.4470  136.8460   91.7130 C   0  0  0  0  0  0  0  0  0  0  0  0
  146.2040  138.1680   91.5510 C   0  0  0  0  0  0  0  0  0  0  0  0
  144.8760  138.6070   91.2310 C   0  0  0  0  0  0  0  0  0  0  0  0
  144.4680  139.8990   91.0340 C   0  0  0  0  0  0  0  0  0  0  0  0
  143.1340  140.1720   90.7280 C   0  0  0  0  0  0  0  0  0  0  0  0
  142.2090  139.1200   90.6220 C   0  0  0  0  0  0  0  0  0  0  0  0
  142.6190  137.7980   90.8200 C   0  0  0  0  0  0  0  0  0  0  0  0
  141.4400  136.4670   90.6820 Cl  0  0  0  0  0  0  0  0  0  0  0  0
  143.9320  137.5270   91.1220 C   0  0  0  0  0  0  0  0  0  0  0  0
  144.9250  136.0420   91.4580 S   0  0  0  0  0  0  0  0  0  0  0  0
  149.0130  137.7540   91.2190 H   0  0  0  0  0  0  0  0  0  0  0  0
  150.1838  135.5987   92.8942 H   0  0  0  0  0  0  0  0  0  0  0  0
  150.9382  134.3946   91.1105 H   0  0  0  0  0  0  0  0  0  0  0  0
  150.1549  135.5795   89.9892 H   0  0  0  0  0  0  0  0  0  0  0  0
  153.1066  134.7783   91.7688 H   0  0  0  0  0  0  0  0  0  0  0  0
  153.9838  136.2174   91.1059 H   0  0  0  0  0  0  0  0  0  0  0  0
  152.4621  135.9978   93.5078 H   0  0  0  0  0  0  0  0  0  0  0  0
  153.3320  137.4240   92.8286 H   0  0  0  0  0  0  0  0  0  0  0  0
  150.9874  137.8799   93.2182 H   0  0  0  0  0  0  0  0  0  0  0  0
  150.5245  138.6001   90.9073 H   0  0  0  0  0  0  0  0  0  0  0  0
  152.2065  138.9514   91.3994 H   0  0  0  0  0  0  0  0  0  0  0  0
  151.3158  137.3244   89.1442 H   0  0  0  0  0  0  0  0  0  0  0  0
  153.0066  137.6170   89.6738 H   0  0  0  0  0  0  0  0  0  0  0  0
  147.0178  138.8994   91.6638 H   0  0  0  0  0  0  0  0  0  0  0  0
  145.1924  140.7227   91.1170 H   0  0  0  0  0  0  0  0  0  0  0  0
  142.8070  141.2103   90.5699 H   0  0  0  0  0  0  0  0  0  0  0  0
  141.1577  139.3372   90.3822 H   0  0  0  0  0  0  0  0  0  0  0  0
  1  2  2  0
  2  3  1  0
  3  4  1  0
  4  5  1  0
  5  6  1  0
  6  7  1  0
  7  8  1  0
  8  9  1  0
  9 10  1  0
 10 11  1  0
  2 12  1  0
 12 13  2  0
 13 14  1  0
 14 15  2  0
 15 16  1  0
 16 17  2  0
 17 18  1  0
 18 19  1  0
 18 20  2  0
 20 21  1  0
  9  4  1  0
 21 12  1  0
 11  6  1  0
 20 14  1  0
  3 22  1  0
  4 23  1  1
  5 24  1  0
  5 25  1  0
  7 26  1  0
  7 27  1  0
  8 28  1  0
  8 29  1  0
  9 30  1  0
 10 31  1  0
 10 32  1  0
 11 33  1  0
 11 34  1  0
 13 35  1  0
 15 36  1  0
 16 37  1  0
 17 38  1  0
M  END
>  <meeko>  (10)
{"is_sidechain": false}

>  <source_group>  (10)
CHRNA7 canonical

>  <source_system>  (10)
CHRNA7_encenicline

>  <source_run>  (10)
canonical_obabel_seed4409_ex32

>  <source_seed>  (10)
4409

>  <vina_pose_rank>  (10)
10

>  <vina_affinity_kcal_mol>  (10)
-6.9640000000000004

>  <vina_rmsd_to_crystal_angstrom>  (10)
9.2453000000000003

$$$$
