CHRNA7_encenicline__canonical_obabel_seed4409_ex32__pose01


 22 25  0  0  0  0  0  0  0  0999 V2000
  143.6310  140.7050   90.0120 O   0  0  0  0  0  0  0  0  0  0  0  0
  143.0830  139.6880   90.2710 C   0  0  0  0  0  0  0  0  0  0  0  0
  141.6380  139.6040   90.1810 N   0  0  0  0  0  0  0  0  0  0  0  0
  141.1750  138.7620   90.3920 H   0  0  0  0  0  0  0  0  0  0  0  0
  143.9090  138.4680   90.6950 C   0  0  0  0  0  0  0  0  0  0  0  0
  143.4190  137.2370   90.9710 C   0  0  0  0  0  0  0  0  0  0  0  0
  144.3210  136.1890   91.3550 C   0  0  0  0  0  0  0  0  0  0  0  0
  143.9870  134.8970   91.6640 C   0  0  0  0  0  0  0  0  0  0  0  0
  144.9800  133.9850   92.0230 C   0  0  0  0  0  0  0  0  0  0  0  0
  146.3240  134.3930   92.0690 C   0  0  0  0  0  0  0  0  0  0  0  0
  146.6720  135.7110   91.7550 C   0  0  0  0  0  0  0  0  0  0  0  0
  148.3790  136.2220   91.8130 Cl  0  0  0  0  0  0  0  0  0  0  0  0
  145.6950  136.6100   91.4000 C   0  0  0  0  0  0  0  0  0  0  0  0
  145.6320  138.3630   90.9210 S   0  0  0  0  0  0  0  0  0  0  0  0
  140.8640  140.7970   89.7690 C   0  0  0  0  0  0  0  0  0  0  0  0
  140.5220  140.7090   88.2680 C   0  0  0  0  0  0  0  0  0  0  0  0
  139.1410  140.7490   88.0610 N   0  0  0  0  0  0  0  0  0  0  0  0
  138.6100  141.9070   88.5870 C   0  0  0  0  0  0  0  0  0  0  0  0
  138.8680  142.0050   90.0620 C   0  0  0  0  0  0  0  0  0  0  0  0
  139.6130  140.8650   90.5180 C   0  0  0  0  0  0  0  0  0  0  0  0
  138.8380  139.6620   90.2280 C   0  0  0  0  0  0  0  0  0  0  0  0
  138.5330  139.6310   88.6820 C   0  0  0  0  0  0  0  0  0  0  0  0
  1  2  2  0
  2  3  1  0
  3 15  1  0
 15 16  1  0
 16 17  1  0
 17 18  1  0
 18 19  1  0
 19 20  1  0
 20 21  1  0
 21 22  1  0
  2  5  1  0
  5  6  2  0
  6  7  1  0
  7  8  2  0
  8  9  1  0
  9 10  2  0
 10 11  1  0
 11 12  1  0
 11 13  2  0
 13 14  1  0
 20 15  1  0
 14  5  1  0
 22 17  1  0
 13  7  1  0
  3  4  1  0
M  END
> <meeko>
{"is_sidechain": false}

> <source_group>
CHRNA7 canonical

> <source_system>
CHRNA7_encenicline

> <source_run>
canonical_obabel_seed4409_ex32

> <source_seed>
4409

> <vina_pose_rank>
1

> <vina_affinity_kcal_mol>
-9.8759999999999994

> <vina_rmsd_to_crystal_angstrom>
0.2792

> <minimizedAffinity>
-9.87356

> <CNNscore>
0.9535351992

> <CNNaffinity>
6.9261937141

> <CNN_VS>
6.6043696404

> <CNNaffinity_variance>
0.0193626918

$$$$
CHRNA7_encenicline__canonical_obabel_seed4409_ex32__pose02


 22 25  0  0  0  0  0  0  0  0999 V2000
  143.8130  140.8700   89.9370 O   0  0  0  0  0  0  0  0  0  0  0  0
  143.3200  139.8290   90.2120 C   0  0  0  0  0  0  0  0  0  0  0  0
  141.8840  139.6600   90.1010 N   0  0  0  0  0  0  0  0  0  0  0  0
  141.4670  138.7980   90.3260 H   0  0  0  0  0  0  0  0  0  0  0  0
  144.2070  138.6690   90.6800 C   0  0  0  0  0  0  0  0  0  0  0  0
  145.5420  138.7300   90.8930 C   0  0  0  0  0  0  0  0  0  0  0  0
  146.2410  137.5570   91.3340 C   0  0  0  0  0  0  0  0  0  0  0  0
  147.5820  137.4540   91.5950 C   0  0  0  0  0  0  0  0  0  0  0  0
  148.1200  136.2380   92.0180 C   0  0  0  0  0  0  0  0  0  0  0  0
  147.2860  135.1180   92.1760 C   0  0  0  0  0  0  0  0  0  0  0  0
  145.9160  135.2170   91.9130 C   0  0  0  0  0  0  0  0  0  0  0  0
  144.8620  133.7930   92.1180 Cl  0  0  0  0  0  0  0  0  0  0  0  0
  145.3840  136.4130   91.4960 C   0  0  0  0  0  0  0  0  0  0  0  0
  143.7360  137.0340   91.0430 S   0  0  0  0  0  0  0  0  0  0  0  0
  141.0510  140.7960   89.6470 C   0  0  0  0  0  0  0  0  0  0  0  0
  140.6500  140.5980   88.1720 C   0  0  0  0  0  0  0  0  0  0  0  0
  139.2610  140.5770   88.0230 N   0  0  0  0  0  0  0  0  0  0  0  0
  138.7110  141.7480   88.4960 C   0  0  0  0  0  0  0  0  0  0  0  0
  139.0250  141.9530   89.9490 C   0  0  0  0  0  0  0  0  0  0  0  0
  139.8300  140.8710   90.4450 C   0  0  0  0  0  0  0  0  0  0  0  0
  139.0880  139.6260   90.2670 C   0  0  0  0  0  0  0  0  0  0  0  0
  138.7210  139.4830   88.7410 C   0  0  0  0  0  0  0  0  0  0  0  0
  1  2  2  0
  2  3  1  0
  3 15  1  0
 15 16  1  0
 16 17  1  0
 17 18  1  0
 18 19  1  0
 19 20  1  0
 20 21  1  0
 21 22  1  0
  2  5  1  0
  5  6  2  0
  6  7  1  0
  7  8  2  0
  8  9  1  0
  9 10  2  0
 10 11  1  0
 11 12  1  0
 11 13  2  0
 13 14  1  0
 20 15  1  0
 14  5  1  0
 22 17  1  0
 13  7  1  0
  3  4  1  0
M  END
> <meeko>
{"is_sidechain": false}

> <source_group>
CHRNA7 canonical

> <source_system>
CHRNA7_encenicline

> <source_run>
canonical_obabel_seed4409_ex32

> <source_seed>
4409

> <vina_pose_rank>
2

> <vina_affinity_kcal_mol>
-9.1310000000000002

> <vina_rmsd_to_crystal_angstrom>
1.8456999999999999

> <minimizedAffinity>
-9.14079

> <CNNscore>
0.9625416398

> <CNNaffinity>
7.1214828491

> <CNN_VS>
6.8547239304

> <CNNaffinity_variance>
0.0050770631

$$$$
CHRNA7_encenicline__canonical_obabel_seed4409_ex32__pose03


 22 25  0  0  0  0  0  0  0  0999 V2000
  140.1010  136.5300   90.3590 O   0  0  0  0  0  0  0  0  0  0  0  0
  140.9670  137.3370   90.3830 C   0  0  0  0  0  0  0  0  0  0  0  0
  140.6890  138.7040   89.9870 N   0  0  0  0  0  0  0  0  0  0  0  0
  141.4030  139.3820   90.0070 H   0  0  0  0  0  0  0  0  0  0  0  0
  142.3720  136.9280   90.8390 C   0  0  0  0  0  0  0  0  0  0  0  0
  142.7900  135.6630   91.0770 C   0  0  0  0  0  0  0  0  0  0  0  0
  144.1420  135.4340   91.4980 C   0  0  0  0  0  0  0  0  0  0  0  0
  144.7170  134.2220   91.7770 C   0  0  0  0  0  0  0  0  0  0  0  0
  146.0520  134.1580   92.1790 C   0  0  0  0  0  0  0  0  0  0  0  0
  146.8070  135.3380   92.2990 C   0  0  0  0  0  0  0  0  0  0  0  0
  146.2260  136.5780   92.0150 C   0  0  0  0  0  0  0  0  0  0  0  0
  147.1890  138.0700   92.1670 Cl  0  0  0  0  0  0  0  0  0  0  0  0
  144.9120  136.6430   91.6190 C   0  0  0  0  0  0  0  0  0  0  0  0
  143.7420  137.9550   91.1540 S   0  0  0  0  0  0  0  0  0  0  0  0
  139.3230  139.0730   89.5520 C   0  0  0  0  0  0  0  0  0  0  0  0
  138.6070  139.8540   90.6720 C   0  0  0  0  0  0  0  0  0  0  0  0
  138.2090  141.1190   90.2310 N   0  0  0  0  0  0  0  0  0  0  0  0
  137.3730  141.0060   89.1410 C   0  0  0  0  0  0  0  0  0  0  0  0
  138.0510  140.3030   88.0020 C   0  0  0  0  0  0  0  0  0  0  0  0
  139.3880  139.9270   88.3700 C   0  0  0  0  0  0  0  0  0  0  0  0
  140.1280  141.1380   88.7180 C   0  0  0  0  0  0  0  0  0  0  0  0
  139.3480  141.8790   89.8700 C   0  0  0  0  0  0  0  0  0  0  0  0
  1  2  2  0
  2  3  1  0
  3 15  1  0
 15 16  1  0
 16 17  1  0
 17 18  1  0
 18 19  1  0
 19 20  1  0
 20 21  1  0
 21 22  1  0
  2  5  1  0
  5  6  2  0
  6  7  1  0
  7  8  2  0
  8  9  1  0
  9 10  2  0
 10 11  1  0
 11 12  1  0
 11 13  2  0
 13 14  1  0
 20 15  1  0
 14  5  1  0
 22 17  1  0
 13  7  1  0
  3  4  1  0
M  END
> <meeko>
{"is_sidechain": false}

> <source_group>
CHRNA7 canonical

> <source_system>
CHRNA7_encenicline

> <source_run>
canonical_obabel_seed4409_ex32

> <source_seed>
4409

> <vina_pose_rank>
3

> <vina_affinity_kcal_mol>
-7.9850000000000003

> <vina_rmsd_to_crystal_angstrom>
2.3376000000000001

> <minimizedAffinity>
-7.99947

> <CNNscore>
0.8087776303

> <CNNaffinity>
7.2146677971

> <CNN_VS>
5.8350620270

> <CNNaffinity_variance>
0.1339514703

$$$$
CHRNA7_encenicline__canonical_obabel_seed4409_ex32__pose04


 22 25  0  0  0  0  0  0  0  0999 V2000
  145.6650  138.5050   93.1570 O   0  0  0  0  0  0  0  0  0  0  0  0
  145.4760  138.2850   92.0090 C   0  0  0  0  0  0  0  0  0  0  0  0
  146.5640  137.8020   91.1800 N   0  0  0  0  0  0  0  0  0  0  0  0
  146.4150  137.6150   90.2250 H   0  0  0  0  0  0  0  0  0  0  0  0
  144.0830  138.5110   91.4130 C   0  0  0  0  0  0  0  0  0  0  0  0
  143.1380  137.5600   91.2260 C   0  0  0  0  0  0  0  0  0  0  0  0
  141.8730  137.9240   90.6560 C   0  0  0  0  0  0  0  0  0  0  0  0
  140.8180  137.0870   90.4060 C   0  0  0  0  0  0  0  0  0  0  0  0
  139.6450  137.5900   89.8430 C   0  0  0  0  0  0  0  0  0  0  0  0
  139.5450  138.9570   89.5320 C   0  0  0  0  0  0  0  0  0  0  0  0
  140.6180  139.8170   89.7860 C   0  0  0  0  0  0  0  0  0  0  0  0
  140.4850  141.5510   89.3910 Cl  0  0  0  0  0  0  0  0  0  0  0  0
  141.7740  139.3240   90.3400 C   0  0  0  0  0  0  0  0  0  0  0  0
  143.3850  140.0000   90.8430 S   0  0  0  0  0  0  0  0  0  0  0  0
  147.9010  137.5930   91.7820 C   0  0  0  0  0  0  0  0  0  0  0  0
  148.1210  136.0930   92.0640 C   0  0  0  0  0  0  0  0  0  0  0  0
  149.2470  135.6120   91.3920 N   0  0  0  0  0  0  0  0  0  0  0  0
  150.3680  136.3210   91.7660 C   0  0  0  0  0  0  0  0  0  0  0  0
  150.2210  137.7810   91.4530 C   0  0  0  0  0  0  0  0  0  0  0  0
  148.9400  138.0400   90.8590 C   0  0  0  0  0  0  0  0  0  0  0  0
  148.8330  137.2560   89.6310 C   0  0  0  0  0  0  0  0  0  0  0  0
  149.0580  135.7380   89.9940 C   0  0  0  0  0  0  0  0  0  0  0  0
  1  2  2  0
  2  3  1  0
  3 15  1  0
 15 16  1  0
 16 17  1  0
 17 18  1  0
 18 19  1  0
 19 20  1  0
 20 21  1  0
 21 22  1  0
  2  5  1  0
  5  6  2  0
  6  7  1  0
  7  8  2  0
  8  9  1  0
  9 10  2  0
 10 11  1  0
 11 12  1  0
 11 13  2  0
 13 14  1  0
 20 15  1  0
 14  5  1  0
 22 17  1  0
 13  7  1  0
  3  4  1  0
M  END
> <meeko>
{"is_sidechain": false}

> <source_group>
CHRNA7 canonical

> <source_system>
CHRNA7_encenicline

> <source_run>
canonical_obabel_seed4409_ex32

> <source_seed>
4409

> <vina_pose_rank>
4

> <vina_affinity_kcal_mol>
-7.6529999999999996

> <vina_rmsd_to_crystal_angstrom>
7.9942000000000002

> <minimizedAffinity>
-7.66118

> <CNNscore>
0.2174074799

> <CNNaffinity>
5.0195174217

> <CNN_VS>
1.0912805796

> <CNNaffinity_variance>
0.3949306905

$$$$
CHRNA7_encenicline__canonical_obabel_seed4409_ex32__pose05


 22 25  0  0  0  0  0  0  0  0999 V2000
  146.1540  138.9500   92.8960 O   0  0  0  0  0  0  0  0  0  0  0  0
  145.8390  138.2840   91.9680 C   0  0  0  0  0  0  0  0  0  0  0  0
  146.8300  137.4650   91.2990 N   0  0  0  0  0  0  0  0  0  0  0  0
  146.5760  136.9070   90.5290 H   0  0  0  0  0  0  0  0  0  0  0  0
  144.3830  138.2940   91.4880 C   0  0  0  0  0  0  0  0  0  0  0  0
  143.6790  139.3880   91.1170 C   0  0  0  0  0  0  0  0  0  0  0  0
  142.3190  139.2400   90.6860 C   0  0  0  0  0  0  0  0  0  0  0  0
  141.4770  140.2400   90.2780 C   0  0  0  0  0  0  0  0  0  0  0  0
  140.1720  139.9390   89.8870 C   0  0  0  0  0  0  0  0  0  0  0  0
  139.7200  138.6090   89.9110 C   0  0  0  0  0  0  0  0  0  0  0  0
  140.5750  137.5820   90.3250 C   0  0  0  0  0  0  0  0  0  0  0  0
  139.9970  135.8960   90.3510 Cl  0  0  0  0  0  0  0  0  0  0  0  0
  141.8610  137.8760   90.7110 C   0  0  0  0  0  0  0  0  0  0  0  0
  143.3020  136.9420   91.3060 S   0  0  0  0  0  0  0  0  0  0  0  0
  148.2300  137.4740   91.7830 C   0  0  0  0  0  0  0  0  0  0  0  0
  148.6990  136.0320   92.0620 C   0  0  0  0  0  0  0  0  0  0  0  0
  149.8240  135.7100   91.2990 N   0  0  0  0  0  0  0  0  0  0  0  0
  150.8510  136.5890   91.5650 C   0  0  0  0  0  0  0  0  0  0  0  0
  150.4580  138.0020   91.2500 C   0  0  0  0  0  0  0  0  0  0  0  0
  149.1060  138.0510   90.7680 C   0  0  0  0  0  0  0  0  0  0  0  0
  149.0170  137.2290   89.5630 C   0  0  0  0  0  0  0  0  0  0  0  0
  149.5000  135.7720   89.9220 C   0  0  0  0  0  0  0  0  0  0  0  0
  1  2  2  0
  2  3  1  0
  3 15  1  0
 15 16  1  0
 16 17  1  0
 17 18  1  0
 18 19  1  0
 19 20  1  0
 20 21  1  0
 21 22  1  0
  2  5  1  0
  5  6  2  0
  6  7  1  0
  7  8  2  0
  8  9  1  0
  9 10  2  0
 10 11  1  0
 11 12  1  0
 11 13  2  0
 13 14  1  0
 20 15  1  0
 14  5  1  0
 22 17  1  0
 13  7  1  0
  3  4  1  0
M  END
> <meeko>
{"is_sidechain": false}

> <source_group>
CHRNA7 canonical

> <source_system>
CHRNA7_encenicline

> <source_run>
canonical_obabel_seed4409_ex32

> <source_seed>
4409

> <vina_pose_rank>
5

> <vina_affinity_kcal_mol>
-7.5060000000000002

> <vina_rmsd_to_crystal_angstrom>
8.1453000000000007

> <minimizedAffinity>
-7.50918

> <CNNscore>
0.2271810174

> <CNNaffinity>
5.1654086113

> <CNN_VS>
1.1734827757

> <CNNaffinity_variance>
0.5221083164

$$$$
CHRNA7_encenicline__canonical_obabel_seed4409_ex32__pose06


 22 25  0  0  0  0  0  0  0  0999 V2000
  144.8650  140.7320   91.1780 O   0  0  0  0  0  0  0  0  0  0  0  0
  144.2670  139.7790   90.8100 C   0  0  0  0  0  0  0  0  0  0  0  0
  144.8870  138.4700   90.8770 N   0  0  0  0  0  0  0  0  0  0  0  0
  144.3960  137.6720   90.5750 H   0  0  0  0  0  0  0  0  0  0  0  0
  142.8420  139.9390   90.2690 C   0  0  0  0  0  0  0  0  0  0  0  0
  141.7540  140.2870   90.9950 C   0  0  0  0  0  0  0  0  0  0  0  0
  140.4790  140.4000   90.3460 C   0  0  0  0  0  0  0  0  0  0  0  0
  139.2900  140.7420   90.9350 C   0  0  0  0  0  0  0  0  0  0  0  0
  138.1260  140.8100   90.1690 C   0  0  0  0  0  0  0  0  0  0  0  0
  138.1730  140.5280   88.7930 C   0  0  0  0  0  0  0  0  0  0  0  0
  139.3830  140.1790   88.1860 C   0  0  0  0  0  0  0  0  0  0  0  0
  139.4360  139.8250   86.4390 Cl  0  0  0  0  0  0  0  0  0  0  0  0
  140.5310  140.1120   88.9380 C   0  0  0  0  0  0  0  0  0  0  0  0
  142.2810  139.7220   88.6350 S   0  0  0  0  0  0  0  0  0  0  0  0
  146.2650  138.3430   91.4040 C   0  0  0  0  0  0  0  0  0  0  0  0
  146.3280  137.2030   92.4410 C   0  0  0  0  0  0  0  0  0  0  0  0
  147.2550  136.2270   92.0640 N   0  0  0  0  0  0  0  0  0  0  0  0
  148.5060  136.7860   91.9160 C   0  0  0  0  0  0  0  0  0  0  0  0
  148.5040  137.8620   90.8710 C   0  0  0  0  0  0  0  0  0  0  0  0
  147.1880  138.0240   90.3190 C   0  0  0  0  0  0  0  0  0  0  0  0
  146.7780  136.7530   89.7260 C   0  0  0  0  0  0  0  0  0  0  0  0
  146.8570  135.6400   90.8380 C   0  0  0  0  0  0  0  0  0  0  0  0
  1  2  2  0
  2  3  1  0
  3 15  1  0
 15 16  1  0
 16 17  1  0
 17 18  1  0
 18 19  1  0
 19 20  1  0
 20 21  1  0
 21 22  1  0
  2  5  1  0
  5  6  2  0
  6  7  1  0
  7  8  2  0
  8  9  1  0
  9 10  2  0
 10 11  1  0
 11 12  1  0
 11 13  2  0
 13 14  1  0
 20 15  1  0
 14  5  1  0
 22 17  1  0
 13  7  1  0
  3  4  1  0
M  END
> <meeko>
{"is_sidechain": false}

> <source_group>
CHRNA7 canonical

> <source_system>
CHRNA7_encenicline

> <source_run>
canonical_obabel_seed4409_ex32

> <source_seed>
4409

> <vina_pose_rank>
6

> <vina_affinity_kcal_mol>
-7.391

> <vina_rmsd_to_crystal_angstrom>
7.8253000000000004

> <minimizedAffinity>
-7.39795

> <CNNscore>
0.1552540511

> <CNNaffinity>
5.3070778847

> <CNN_VS>
0.8239453435

> <CNNaffinity_variance>
0.3193333745

$$$$
CHRNA7_encenicline__canonical_obabel_seed4409_ex32__pose07


 22 25  0  0  0  0  0  0  0  0999 V2000
  144.9570  140.7990   91.2890 O   0  0  0  0  0  0  0  0  0  0  0  0
  144.3860  139.8970   90.7760 C   0  0  0  0  0  0  0  0  0  0  0  0
  145.0640  138.6290   90.5890 N   0  0  0  0  0  0  0  0  0  0  0  0
  144.5960  137.8730   90.1660 H   0  0  0  0  0  0  0  0  0  0  0  0
  142.9350  140.0800   90.3180 C   0  0  0  0  0  0  0  0  0  0  0  0
  142.5240  140.2530   89.0400 C   0  0  0  0  0  0  0  0  0  0  0  0
  141.1240  140.4100   88.7640 C   0  0  0  0  0  0  0  0  0  0  0  0
  140.5500  140.5900   87.5340 C   0  0  0  0  0  0  0  0  0  0  0  0
  139.1660  140.7300   87.4230 C   0  0  0  0  0  0  0  0  0  0  0  0
  138.3610  140.6860   88.5750 C   0  0  0  0  0  0  0  0  0  0  0  0
  138.9410  140.5000   89.8330 C   0  0  0  0  0  0  0  0  0  0  0  0
  137.9150  140.4420   91.2900 Cl  0  0  0  0  0  0  0  0  0  0  0  0
  140.3040  140.3630   89.9450 C   0  0  0  0  0  0  0  0  0  0  0  0
  141.4950  140.1110   91.2950 S   0  0  0  0  0  0  0  0  0  0  0  0
  146.4660  138.4790   91.0410 C   0  0  0  0  0  0  0  0  0  0  0  0
  146.5230  137.5730   92.2870 C   0  0  0  0  0  0  0  0  0  0  0  0
  147.3330  136.4560   92.0650 N   0  0  0  0  0  0  0  0  0  0  0  0
  148.6080  136.8500   91.7220 C   0  0  0  0  0  0  0  0  0  0  0  0
  148.6070  137.6860   90.4770 C   0  0  0  0  0  0  0  0  0  0  0  0
  147.2670  137.8580   89.9900 C   0  0  0  0  0  0  0  0  0  0  0  0
  146.7070  136.5400   89.7040 C   0  0  0  0  0  0  0  0  0  0  0  0
  146.7880  135.6730   91.0180 C   0  0  0  0  0  0  0  0  0  0  0  0
  1  2  2  0
  2  3  1  0
  3 15  1  0
 15 16  1  0
 16 17  1  0
 17 18  1  0
 18 19  1  0
 19 20  1  0
 20 21  1  0
 21 22  1  0
  2  5  1  0
  5  6  2  0
  6  7  1  0
  7  8  2  0
  8  9  1  0
  9 10  2  0
 10 11  1  0
 11 12  1  0
 11 13  2  0
 13 14  1  0
 20 15  1  0
 14  5  1  0
 22 17  1  0
 13  7  1  0
  3  4  1  0
M  END
> <meeko>
{"is_sidechain": false}

> <source_group>
CHRNA7 canonical

> <source_system>
CHRNA7_encenicline

> <source_run>
canonical_obabel_seed4409_ex32

> <source_seed>
4409

> <vina_pose_rank>
7

> <vina_affinity_kcal_mol>
-7.2329999999999997

> <vina_rmsd_to_crystal_angstrom>
7.9027000000000003

> <minimizedAffinity>
-7.23934

> <CNNscore>
0.1913902611

> <CNNaffinity>
5.4260082245

> <CNN_VS>
1.0384851694

> <CNNaffinity_variance>
0.2333715409

$$$$
CHRNA7_encenicline__canonical_obabel_seed4409_ex32__pose08


 22 25  0  0  0  0  0  0  0  0999 V2000
  140.2370  136.6700   90.3590 O   0  0  0  0  0  0  0  0  0  0  0  0
  141.0700  137.5120   90.3620 C   0  0  0  0  0  0  0  0  0  0  0  0
  140.7330  138.8600   89.9490 N   0  0  0  0  0  0  0  0  0  0  0  0
  141.4190  139.5660   89.9510 H   0  0  0  0  0  0  0  0  0  0  0  0
  142.4960  137.1670   90.8080 C   0  0  0  0  0  0  0  0  0  0  0  0
  143.4640  138.0580   91.1240 C   0  0  0  0  0  0  0  0  0  0  0  0
  144.7560  137.5820   91.5280 C   0  0  0  0  0  0  0  0  0  0  0  0
  145.8350  138.3480   91.8800 C   0  0  0  0  0  0  0  0  0  0  0  0
  147.0340  137.7380   92.2510 C   0  0  0  0  0  0  0  0  0  0  0  0
  147.1340  136.3360   92.2640 C   0  0  0  0  0  0  0  0  0  0  0  0
  146.0360  135.5480   91.9070 C   0  0  0  0  0  0  0  0  0  0  0  0
  146.1680  133.7700   91.9270 Cl  0  0  0  0  0  0  0  0  0  0  0  0
  144.8540  136.1470   91.5410 C   0  0  0  0  0  0  0  0  0  0  0  0
  143.2060  135.5910   91.0130 S   0  0  0  0  0  0  0  0  0  0  0  0
  139.3490  139.1670   89.5230 C   0  0  0  0  0  0  0  0  0  0  0  0
  138.6120  139.9300   90.6420 C   0  0  0  0  0  0  0  0  0  0  0  0
  138.1570  141.1720   90.1920 N   0  0  0  0  0  0  0  0  0  0  0  0
  137.3160  141.0120   89.1120 C   0  0  0  0  0  0  0  0  0  0  0  0
  138.0120  140.3260   87.9740 C   0  0  0  0  0  0  0  0  0  0  0  0
  139.3670  140.0100   88.3320 C   0  0  0  0  0  0  0  0  0  0  0  0
  140.0580  141.2540   88.6590 C   0  0  0  0  0  0  0  0  0  0  0  0
  139.2600  141.9750   89.8110 C   0  0  0  0  0  0  0  0  0  0  0  0
  1  2  2  0
  2  3  1  0
  3 15  1  0
 15 16  1  0
 16 17  1  0
 17 18  1  0
 18 19  1  0
 19 20  1  0
 20 21  1  0
 21 22  1  0
  2  5  1  0
  5  6  2  0
  6  7  1  0
  7  8  2  0
  8  9  1  0
  9 10  2  0
 10 11  1  0
 11 12  1  0
 11 13  2  0
 13 14  1  0
 20 15  1  0
 14  5  1  0
 22 17  1  0
 13  7  1  0
  3  4  1  0
M  END
> <meeko>
{"is_sidechain": false}

> <source_group>
CHRNA7 canonical

> <source_system>
CHRNA7_encenicline

> <source_run>
canonical_obabel_seed4409_ex32

> <source_seed>
4409

> <vina_pose_rank>
8

> <vina_affinity_kcal_mol>
-7.2050000000000001

> <vina_rmsd_to_crystal_angstrom>
2.7557999999999998

> <minimizedAffinity>
-7.20683

> <CNNscore>
0.8267342448

> <CNNaffinity>
7.0031495094

> <CNN_VS>
5.7897434235

> <CNNaffinity_variance>
0.2485296875

$$$$
CHRNA7_encenicline__canonical_obabel_seed4409_ex32__pose09


 22 25  0  0  0  0  0  0  0  0999 V2000
  147.2420  135.0860   92.6280 O   0  0  0  0  0  0  0  0  0  0  0  0
  147.0870  135.9720   91.8590 C   0  0  0  0  0  0  0  0  0  0  0  0
  148.2390  136.5910   91.2300 N   0  0  0  0  0  0  0  0  0  0  0  0
  148.1180  137.3260   90.5880 H   0  0  0  0  0  0  0  0  0  0  0  0
  145.6690  136.4540   91.5330 C   0  0  0  0  0  0  0  0  0  0  0  0
  144.5880  135.6620   91.3440 C   0  0  0  0  0  0  0  0  0  0  0  0
  143.3180  136.2600   91.0460 C   0  0  0  0  0  0  0  0  0  0  0  0
  142.1360  135.6030   90.8310 C   0  0  0  0  0  0  0  0  0  0  0  0
  140.9760  136.3260   90.5470 C   0  0  0  0  0  0  0  0  0  0  0  0
  141.0220  137.7290   90.4830 C   0  0  0  0  0  0  0  0  0  0  0  0
  142.2250  138.4060   90.7020 C   0  0  0  0  0  0  0  0  0  0  0  0
  142.2760  140.1860   90.6200 Cl  0  0  0  0  0  0  0  0  0  0  0  0
  143.3690  137.6960   90.9810 C   0  0  0  0  0  0  0  0  0  0  0  0
  145.1090  138.0890   91.3290 S   0  0  0  0  0  0  0  0  0  0  0  0
  149.5980  136.1060   91.5630 C   0  0  0  0  0  0  0  0  0  0  0  0
  150.2810  135.5490   90.2990 C   0  0  0  0  0  0  0  0  0  0  0  0
  151.4730  136.2250   90.0280 N   0  0  0  0  0  0  0  0  0  0  0  0
  152.3340  136.1260   91.1000 C   0  0  0  0  0  0  0  0  0  0  0  0
  151.7320  136.7130   92.3420 C   0  0  0  0  0  0  0  0  0  0  0  0
  150.4100  137.2070   92.0730 C   0  0  0  0  0  0  0  0  0  0  0  0
  150.5020  138.2290   91.0340 C   0  0  0  0  0  0  0  0  0  0  0  0
  151.1990  137.5910   89.7730 C   0  0  0  0  0  0  0  0  0  0  0  0
  1  2  2  0
  2  3  1  0
  3 15  1  0
 15 16  1  0
 16 17  1  0
 17 18  1  0
 18 19  1  0
 19 20  1  0
 20 21  1  0
 21 22  1  0
  2  5  1  0
  5  6  2  0
  6  7  1  0
  7  8  2  0
  8  9  1  0
  9 10  2  0
 10 11  1  0
 11 12  1  0
 11 13  2  0
 13 14  1  0
 20 15  1  0
 14  5  1  0
 22 17  1  0
 13  7  1  0
  3  4  1  0
M  END
> <meeko>
{"is_sidechain": false}

> <source_group>
CHRNA7 canonical

> <source_system>
CHRNA7_encenicline

> <source_run>
canonical_obabel_seed4409_ex32

> <source_seed>
4409

> <vina_pose_rank>
9

> <vina_affinity_kcal_mol>
-6.992

> <vina_rmsd_to_crystal_angstrom>
8.6414000000000009

> <minimizedAffinity>
-7.00297

> <CNNscore>
0.2111922503

> <CNNaffinity>
5.2344355583

> <CNN_VS>
1.1054722071

> <CNNaffinity_variance>
0.2516999543

$$$$
CHRNA7_encenicline__canonical_obabel_seed4409_ex32__pose10


 22 25  0  0  0  0  0  0  0  0999 V2000
  147.8440  135.1780   92.6150 O   0  0  0  0  0  0  0  0  0  0  0  0
  147.8040  136.2200   92.0530 C   0  0  0  0  0  0  0  0  0  0  0  0
  149.0380  136.8890   91.6880 N   0  0  0  0  0  0  0  0  0  0  0  0
  149.0130  137.7540   91.2190 H   0  0  0  0  0  0  0  0  0  0  0  0
  146.4470  136.8460   91.7130 C   0  0  0  0  0  0  0  0  0  0  0  0
  146.2040  138.1680   91.5510 C   0  0  0  0  0  0  0  0  0  0  0  0
  144.8760  138.6070   91.2310 C   0  0  0  0  0  0  0  0  0  0  0  0
  144.4680  139.8990   91.0340 C   0  0  0  0  0  0  0  0  0  0  0  0
  143.1340  140.1720   90.7280 C   0  0  0  0  0  0  0  0  0  0  0  0
  142.2090  139.1200   90.6220 C   0  0  0  0  0  0  0  0  0  0  0  0
  142.6190  137.7980   90.8200 C   0  0  0  0  0  0  0  0  0  0  0  0
  141.4400  136.4670   90.6820 Cl  0  0  0  0  0  0  0  0  0  0  0  0
  143.9320  137.5270   91.1220 C   0  0  0  0  0  0  0  0  0  0  0  0
  144.9250  136.0420   91.4580 S   0  0  0  0  0  0  0  0  0  0  0  0
  150.3350  136.2610   92.0290 C   0  0  0  0  0  0  0  0  0  0  0  0
  150.8590  135.4540   90.8250 C   0  0  0  0  0  0  0  0  0  0  0  0
  152.1150  135.9110   90.4170 N   0  0  0  0  0  0  0  0  0  0  0  0
  153.0160  135.8290   91.4560 C   0  0  0  0  0  0  0  0  0  0  0  0
  152.5750  136.6510   92.6300 C   0  0  0  0  0  0  0  0  0  0  0  0
  151.3190  137.2900   92.3510 C   0  0  0  0  0  0  0  0  0  0  0  0
  151.4890  138.1470   91.1800 C   0  0  0  0  0  0  0  0  0  0  0  0
  152.0160  137.2580   89.9900 C   0  0  0  0  0  0  0  0  0  0  0  0
  1  2  2  0
  2  3  1  0
  3 15  1  0
 15 16  1  0
 16 17  1  0
 17 18  1  0
 18 19  1  0
 19 20  1  0
 20 21  1  0
 21 22  1  0
  2  5  1  0
  5  6  2  0
  6  7  1  0
  7  8  2  0
  8  9  1  0
  9 10  2  0
 10 11  1  0
 11 12  1  0
 11 13  2  0
 13 14  1  0
 20 15  1  0
 14  5  1  0
 22 17  1  0
 13  7  1  0
  3  4  1  0
M  END
> <meeko>
{"is_sidechain": false}

> <source_group>
CHRNA7 canonical

> <source_system>
CHRNA7_encenicline

> <source_run>
canonical_obabel_seed4409_ex32

> <source_seed>
4409

> <vina_pose_rank>
10

> <vina_affinity_kcal_mol>
-6.9640000000000004

> <vina_rmsd_to_crystal_angstrom>
9.2453000000000003

> <minimizedAffinity>
-6.97810

> <CNNscore>
0.2136558741

> <CNNaffinity>
4.9805808067

> <CNN_VS>
1.0641303062

> <CNNaffinity_variance>
0.4244395792

$$$$
