FYN_saracatinib__vina_seed5519_ex64__pose01
     RDKit          3D

 72 77  0  0  0  0  0  0  0  0999 V2000
   -9.1570   13.7740   -0.1760 C   0  0  0  0  0  0  0  0  0  0  0  0
   -8.4370   13.8000   -1.4370 N   0  0  0  0  0  0  0  0  0  0  0  0
   -9.3070   13.3810   -2.5210 C   0  0  0  0  0  0  0  0  0  0  0  0
   -8.5990   13.4560   -3.8820 C   0  0  0  0  0  0  0  0  0  0  0  0
   -8.0780   14.7900   -4.1640 N   0  0  0  0  0  0  0  0  0  0  0  0
   -7.3640   14.7620   -5.4360 C   0  0  0  0  0  0  0  0  0  0  0  0
   -7.8360   15.7630   -6.5050 C   0  0  0  0  0  0  0  0  0  0  0  0
   -9.1900   16.1150   -6.3500 O   0  0  0  0  0  0  0  0  0  0  0  0
   -9.9940   15.8940   -7.4410 C   0  0  0  0  0  0  0  0  0  0  0  0
  -11.0940   16.6150   -7.6850 C   0  0  0  0  0  0  0  0  0  0  0  0
  -11.8680   16.3740   -8.7540 C   0  0  0  0  0  0  0  0  0  0  0  0
  -11.5940   15.3860   -9.6510 C   0  0  0  0  0  0  0  0  0  0  0  0
  -10.4820   14.6350   -9.4190 C   0  0  0  0  0  0  0  0  0  0  0  0
  -10.0990   13.6190  -10.2750 O   0  0  0  0  0  0  0  0  0  0  0  0
  -10.0100   12.2730   -9.8720 C   0  0  0  0  0  0  0  0  0  0  0  0
  -11.0950   11.8610   -8.8770 C   0  0  0  0  0  0  0  0  0  0  0  0
  -11.1830   10.3440   -8.7550 C   0  0  0  0  0  0  0  0  0  0  0  0
  -11.4080    9.7520  -10.0120 O   0  0  0  0  0  0  0  0  0  0  0  0
  -10.3040    9.9580  -10.8520 C   0  0  0  0  0  0  0  0  0  0  0  0
  -10.1610   11.4450  -11.1590 C   0  0  0  0  0  0  0  0  0  0  0  0
   -9.7300   14.9200   -8.3320 C   0  0  0  0  0  0  0  0  0  0  0  0
  -12.4620   15.2540  -10.6950 C   0  0  0  0  0  0  0  0  0  0  0  0
  -12.5330   14.4580  -11.6970 N   0  0  0  0  0  0  0  0  0  0  0  0
  -13.4060   14.0960  -12.5610 C   0  0  0  0  0  0  0  0  0  0  0  0
  -14.1420   12.9670  -12.3540 C   0  0  0  0  0  0  0  0  0  0  0  0
  -13.9830   11.9460  -10.9540 Cl  0  0  0  0  0  0  0  0  0  0  0  0
  -15.0780   12.5690  -13.2370 C   0  0  0  0  0  0  0  0  0  0  0  0
  -15.3210   13.2560  -14.3620 C   0  0  0  0  0  0  0  0  0  0  0  0
  -14.6030   14.3610  -14.5790 C   0  0  0  0  0  0  0  0  0  0  0  0
  -13.6720   14.7660  -13.7060 C   0  0  0  0  0  0  0  0  0  0  0  0
  -13.1430   15.8010  -14.1150 O   0  0  0  0  0  0  0  0  0  0  0  0
  -13.6870   16.1160  -15.3960 C   0  0  0  0  0  0  0  0  0  0  0  0
  -14.6830   15.1110  -15.5500 O   0  0  0  0  0  0  0  0  0  0  0  0
  -13.4570   16.0530  -10.7420 N   0  0  0  0  0  0  0  0  0  0  0  0
  -13.6230   16.9350   -9.8550 C   0  0  0  0  0  0  0  0  0  0  0  0
  -12.8760   17.1350   -8.8620 N   0  0  0  0  0  0  0  0  0  0  0  0
   -7.2020   15.1770   -3.0680 C   0  0  0  0  0  0  0  0  0  0  0  0
   -7.9290   15.1330   -1.7100 C   0  0  0  0  0  0  0  0  0  0  0  0
   -8.4389   13.7999    0.6568 H   0  0  0  0  0  0  0  0  0  0  0  0
   -9.8211   14.6487   -0.1149 H   0  0  0  0  0  0  0  0  0  0  0  0
   -9.7563   12.8536   -0.1149 H   0  0  0  0  0  0  0  0  0  0  0  0
   -9.6248   12.3433   -2.3417 H   0  0  0  0  0  0  0  0  0  0  0  0
  -10.1718   14.0603   -2.5475 H   0  0  0  0  0  0  0  0  0  0  0  0
   -7.7624   12.7418   -3.8851 H   0  0  0  0  0  0  0  0  0  0  0  0
   -9.3385   13.2129   -4.6592 H   0  0  0  0  0  0  0  0  0  0  0  0
   -6.3033   14.9676   -5.2295 H   0  0  0  0  0  0  0  0  0  0  0  0
   -7.5595   13.7661   -5.8602 H   0  0  0  0  0  0  0  0  0  0  0  0
   -7.2236   16.6737   -6.4311 H   0  0  0  0  0  0  0  0  0  0  0  0
   -7.7251   15.2813   -7.4877 H   0  0  0  0  0  0  0  0  0  0  0  0
  -11.3704   17.4243   -6.9931 H   0  0  0  0  0  0  0  0  0  0  0  0
   -9.0536   12.1104   -9.3535 H   0  0  0  0  0  0  0  0  0  0  0  0
  -10.8583   12.2872   -7.8910 H   0  0  0  0  0  0  0  0  0  0  0  0
  -12.0624   12.2382   -9.2402 H   0  0  0  0  0  0  0  0  0  0  0  0
  -10.2392    9.9606   -8.3399 H   0  0  0  0  0  0  0  0  0  0  0  0
  -12.0240   10.0926   -8.0921 H   0  0  0  0  0  0  0  0  0  0  0  0
   -9.3924    9.5987  -10.3522 H   0  0  0  0  0  0  0  0  0  0  0  0
  -10.4532    9.4052  -11.7912 H   0  0  0  0  0  0  0  0  0  0  0  0
   -9.2714   11.5964  -11.7881 H   0  0  0  0  0  0  0  0  0  0  0  0
  -11.0701   11.7793  -11.6804 H   0  0  0  0  0  0  0  0  0  0  0  0
   -8.8319   14.3079   -8.1624 H   0  0  0  0  0  0  0  0  0  0  0  0
  -11.8516   15.9490  -11.2903 H   0  0  0  0  0  0  0  0  0  0  0  0
  -11.6240   13.9530  -11.8680 H   0  0  0  0  0  0  0  0  0  0  0  0
  -15.6575   11.6573  -13.0297 H   0  0  0  0  0  0  0  0  0  0  0  0
  -16.0840   12.9218  -15.0804 H   0  0  0  0  0  0  0  0  0  0  0  0
  -14.1303   17.1227  -15.4054 H   0  0  0  0  0  0  0  0  0  0  0  0
  -12.9406   16.1281  -16.2039 H   0  0  0  0  0  0  0  0  0  0  0  0
  -14.5012   17.5891   -9.9592 H   0  0  0  0  0  0  0  0  0  0  0  0
  -13.0650   17.8440   -8.2050 H   0  0  0  0  0  0  0  0  0  0  0  0
   -6.3460   14.4869   -3.0359 H   0  0  0  0  0  0  0  0  0  0  0  0
   -6.8706   16.2109   -3.2445 H   0  0  0  0  0  0  0  0  0  0  0  0
   -7.2249   15.4199   -0.9151 H   0  0  0  0  0  0  0  0  0  0  0  0
   -8.7773   15.8325   -1.7427 H   0  0  0  0  0  0  0  0  0  0  0  0
  1  2  1  0
  2  3  1  0
  3  4  1  0
  4  5  1  0
  5  6  1  0
  6  7  1  0
  7  8  1  0
  8  9  1  0
  9 10  2  0
 10 11  1  0
 11 12  2  0
 12 13  1  0
 13 14  1  0
 14 15  1  0
 15 16  1  0
 16 17  1  0
 17 18  1  0
 18 19  1  0
 19 20  1  0
 13 21  2  0
 12 22  1  0
 22 23  1  0
 23 24  1  0
 24 25  2  0
 25 26  1  0
 25 27  1  0
 27 28  2  0
 28 29  1  0
 29 30  2  0
 30 31  1  0
 31 32  1  0
 32 33  1  0
 22 34  1  0
 34 35  2  0
 35 36  1  0
  5 37  1  0
 37 38  1  0
 38  2  1  0
 21  9  1  0
 30 24  1  0
 36 11  1  0
 20 15  1  0
 33 29  1  0
  1 39  1  0
  1 40  1  0
  1 41  1  0
  3 42  1  0
  3 43  1  0
  4 44  1  0
  4 45  1  0
  6 46  1  0
  6 47  1  0
  7 48  1  0
  7 49  1  0
 10 50  1  0
 15 51  1  0
 16 52  1  0
 16 53  1  0
 17 54  1  0
 17 55  1  0
 19 56  1  0
 19 57  1  0
 20 58  1  0
 20 59  1  0
 21 60  1  0
 22 61  1  0
 23 62  1  0
 27 63  1  0
 28 64  1  0
 32 65  1  0
 32 66  1  0
 35 67  1  0
 36 68  1  0
 37 69  1  0
 37 70  1  0
 38 71  1  0
 38 72  1  0
M  END
>  <meeko>  (1)
{"is_sidechain": false}

>  <source_group>  (1)
FYN canonical

>  <source_system>  (1)
FYN_saracatinib

>  <source_run>  (1)
vina_seed5519_ex64

>  <source_seed>  (1)
5519

>  <vina_pose_rank>  (1)
1

>  <vina_affinity_kcal_mol>  (1)
-9.202

>  <vina_rmsd_to_crystal_angstrom>  (1)
1.9413

$$$$
FYN_saracatinib__vina_seed5519_ex64__pose02
     RDKit          3D

 72 77  0  0  0  0  0  0  0  0999 V2000
   -9.1530   13.7020   -0.2980 C   0  0  0  0  0  0  0  0  0  0  0  0
   -8.3660   14.0370   -1.4720 N   0  0  0  0  0  0  0  0  0  0  0  0
   -9.0020   13.5130   -2.6680 C   0  0  0  0  0  0  0  0  0  0  0  0
   -8.2320   13.9020   -3.9390 C   0  0  0  0  0  0  0  0  0  0  0  0
   -8.0660   15.3460   -4.0680 N   0  0  0  0  0  0  0  0  0  0  0  0
   -7.2710   15.6290   -5.2580 C   0  0  0  0  0  0  0  0  0  0  0  0
   -8.0260   16.2280   -6.4570 C   0  0  0  0  0  0  0  0  0  0  0  0
   -9.4220   16.1980   -6.2810 O   0  0  0  0  0  0  0  0  0  0  0  0
  -10.1630   15.9740   -7.4160 C   0  0  0  0  0  0  0  0  0  0  0  0
  -11.2720   16.6650   -7.7020 C   0  0  0  0  0  0  0  0  0  0  0  0
  -11.9830   16.4210   -8.8130 C   0  0  0  0  0  0  0  0  0  0  0  0
  -11.6320   15.4610   -9.7140 C   0  0  0  0  0  0  0  0  0  0  0  0
  -10.5090   14.7410   -9.4400 C   0  0  0  0  0  0  0  0  0  0  0  0
  -10.0500   13.7550  -10.2940 O   0  0  0  0  0  0  0  0  0  0  0  0
   -9.9020   12.4120   -9.9020 C   0  0  0  0  0  0  0  0  0  0  0  0
  -10.9420   11.9580   -8.8760 C   0  0  0  0  0  0  0  0  0  0  0  0
  -10.9730   10.4380   -8.7590 C   0  0  0  0  0  0  0  0  0  0  0  0
  -11.2150    9.8440  -10.0110 O   0  0  0  0  0  0  0  0  0  0  0  0
  -10.1460   10.0920  -10.8840 C   0  0  0  0  0  0  0  0  0  0  0  0
  -10.0640   11.5840  -11.1870 C   0  0  0  0  0  0  0  0  0  0  0  0
   -9.8220   15.0280   -8.3100 C   0  0  0  0  0  0  0  0  0  0  0  0
  -12.4420   15.3230  -10.8030 C   0  0  0  0  0  0  0  0  0  0  0  0
  -12.4360   14.5450  -11.8220 N   0  0  0  0  0  0  0  0  0  0  0  0
  -13.2750   13.8320  -12.4750 C   0  0  0  0  0  0  0  0  0  0  0  0
  -13.7040   14.2390  -13.7030 C   0  0  0  0  0  0  0  0  0  0  0  0
  -13.1780   15.7050  -14.4810 Cl  0  0  0  0  0  0  0  0  0  0  0  0
  -14.5750   13.5030  -14.4210 C   0  0  0  0  0  0  0  0  0  0  0  0
  -15.0660   12.3450  -13.9570 C   0  0  0  0  0  0  0  0  0  0  0  0
  -14.6580   11.9380  -12.7520 C   0  0  0  0  0  0  0  0  0  0  0  0
  -13.7910   12.6620  -12.0330 C   0  0  0  0  0  0  0  0  0  0  0  0
  -13.5630   12.0920  -10.9640 O   0  0  0  0  0  0  0  0  0  0  0  0
  -14.3720   10.9190  -10.8910 C   0  0  0  0  0  0  0  0  0  0  0  0
  -15.0010   10.9120  -12.1670 O   0  0  0  0  0  0  0  0  0  0  0  0
  -13.4580   16.0910  -10.8850 N   0  0  0  0  0  0  0  0  0  0  0  0
  -13.6970   16.9490   -9.9920 C   0  0  0  0  0  0  0  0  0  0  0  0
  -13.0080   17.1520   -8.9590 N   0  0  0  0  0  0  0  0  0  0  0  0
   -7.4180   15.8390   -2.8620 C   0  0  0  0  0  0  0  0  0  0  0  0
   -8.2130   15.4760   -1.5940 C   0  0  0  0  0  0  0  0  0  0  0  0
   -8.5804   13.9457    0.6090 H   0  0  0  0  0  0  0  0  0  0  0  0
  -10.0891   14.2797   -0.3070 H   0  0  0  0  0  0  0  0  0  0  0  0
   -9.3855   12.6269   -0.3070 H   0  0  0  0  0  0  0  0  0  0  0  0
   -9.0433   12.4160   -2.5981 H   0  0  0  0  0  0  0  0  0  0  0  0
  -10.0125   13.9425   -2.7348 H   0  0  0  0  0  0  0  0  0  0  0  0
   -7.2373   13.4334   -3.9069 H   0  0  0  0  0  0  0  0  0  0  0  0
   -8.8141   13.5524   -4.8044 H   0  0  0  0  0  0  0  0  0  0  0  0
   -6.4805   16.3383   -4.9717 H   0  0  0  0  0  0  0  0  0  0  0  0
   -6.9022   14.6517   -5.6029 H   0  0  0  0  0  0  0  0  0  0  0  0
   -7.7088   17.2731   -6.5879 H   0  0  0  0  0  0  0  0  0  0  0  0
   -7.7863   15.6203   -7.3420 H   0  0  0  0  0  0  0  0  0  0  0  0
  -11.6087   17.4513   -7.0103 H   0  0  0  0  0  0  0  0  0  0  0  0
   -8.9245   12.2811   -9.4147 H   0  0  0  0  0  0  0  0  0  0  0  0
  -10.6906   12.3884   -7.8954 H   0  0  0  0  0  0  0  0  0  0  0  0
  -11.9326   12.3024   -9.2078 H   0  0  0  0  0  0  0  0  0  0  0  0
  -10.0042   10.0864   -8.3745 H   0  0  0  0  0  0  0  0  0  0  0  0
  -11.7841   10.1544   -8.0722 H   0  0  0  0  0  0  0  0  0  0  0  0
   -9.2072    9.7622  -10.4151 H   0  0  0  0  0  0  0  0  0  0  0  0
  -10.3058    9.5387  -11.8212 H   0  0  0  0  0  0  0  0  0  0  0  0
   -9.2001   11.7686  -11.8424 H   0  0  0  0  0  0  0  0  0  0  0  0
  -11.0002   11.8884  -11.6778 H   0  0  0  0  0  0  0  0  0  0  0  0
   -8.9136   14.4420   -8.1064 H   0  0  0  0  0  0  0  0  0  0  0  0
  -11.8255   16.0488  -11.3535 H   0  0  0  0  0  0  0  0  0  0  0  0
  -11.4780   14.4630  -12.2530 H   0  0  0  0  0  0  0  0  0  0  0  0
  -14.8908   13.8611  -15.4120 H   0  0  0  0  0  0  0  0  0  0  0  0
  -15.7793   11.7513  -14.5475 H   0  0  0  0  0  0  0  0  0  0  0  0
  -13.7576   10.0186  -10.7436 H   0  0  0  0  0  0  0  0  0  0  0  0
  -15.0793   10.9204  -10.0485 H   0  0  0  0  0  0  0  0  0  0  0  0
  -14.5895   17.5773  -10.1288 H   0  0  0  0  0  0  0  0  0  0  0  0
  -13.2530   17.8410   -8.2990 H   0  0  0  0  0  0  0  0  0  0  0  0
   -6.4137   15.3958   -2.7912 H   0  0  0  0  0  0  0  0  0  0  0  0
   -7.3635   16.9357   -2.9281 H   0  0  0  0  0  0  0  0  0  0  0  0
   -7.6777   15.8572   -0.7119 H   0  0  0  0  0  0  0  0  0  0  0  0
   -9.2121   15.9308   -1.6636 H   0  0  0  0  0  0  0  0  0  0  0  0
  1  2  1  0
  2  3  1  0
  3  4  1  0
  4  5  1  0
  5  6  1  0
  6  7  1  0
  7  8  1  0
  8  9  1  0
  9 10  2  0
 10 11  1  0
 11 12  2  0
 12 13  1  0
 13 14  1  0
 14 15  1  0
 15 16  1  0
 16 17  1  0
 17 18  1  0
 18 19  1  0
 19 20  1  0
 13 21  2  0
 12 22  1  0
 22 23  1  0
 23 24  1  0
 24 25  2  0
 25 26  1  0
 25 27  1  0
 27 28  2  0
 28 29  1  0
 29 30  2  0
 30 31  1  0
 31 32  1  0
 32 33  1  0
 22 34  1  0
 34 35  2  0
 35 36  1  0
  5 37  1  0
 37 38  1  0
 38  2  1  0
 21  9  1  0
 30 24  1  0
 36 11  1  0
 20 15  1  0
 33 29  1  0
  1 39  1  0
  1 40  1  0
  1 41  1  0
  3 42  1  0
  3 43  1  0
  4 44  1  0
  4 45  1  0
  6 46  1  0
  6 47  1  0
  7 48  1  0
  7 49  1  0
 10 50  1  0
 15 51  1  0
 16 52  1  0
 16 53  1  0
 17 54  1  0
 17 55  1  0
 19 56  1  0
 19 57  1  0
 20 58  1  0
 20 59  1  0
 21 60  1  0
 22 61  1  0
 23 62  1  0
 27 63  1  0
 28 64  1  0
 32 65  1  0
 32 66  1  0
 35 67  1  0
 36 68  1  0
 37 69  1  0
 37 70  1  0
 38 71  1  0
 38 72  1  0
M  END
>  <meeko>  (2)
{"is_sidechain": false}

>  <source_group>  (2)
FYN canonical

>  <source_system>  (2)
FYN_saracatinib

>  <source_run>  (2)
vina_seed5519_ex64

>  <source_seed>  (2)
5519

>  <vina_pose_rank>  (2)
2

>  <vina_affinity_kcal_mol>  (2)
-9.032

>  <vina_rmsd_to_crystal_angstrom>  (2)
2.6549999999999998

$$$$
FYN_saracatinib__vina_seed5519_ex64__pose03
     RDKit          3D

 72 77  0  0  0  0  0  0  0  0999 V2000
   -9.1100    9.4310   -9.8550 C   0  0  0  0  0  0  0  0  0  0  0  0
   -9.4540   10.7690   -9.4040 N   0  0  0  0  0  0  0  0  0  0  0  0
  -10.4290   10.7010   -8.3300 C   0  0  0  0  0  0  0  0  0  0  0  0
  -10.7710   12.0940   -7.7830 C   0  0  0  0  0  0  0  0  0  0  0  0
   -9.5880   12.8170   -7.3230 N   0  0  0  0  0  0  0  0  0  0  0  0
   -9.9870   14.1500   -6.8840 C   0  0  0  0  0  0  0  0  0  0  0  0
   -9.7350   15.2970   -7.8760 C   0  0  0  0  0  0  0  0  0  0  0  0
  -10.8360   16.1680   -7.9820 O   0  0  0  0  0  0  0  0  0  0  0  0
  -11.6960   15.9210   -9.0240 C   0  0  0  0  0  0  0  0  0  0  0  0
  -12.7820   16.6670   -9.2560 C   0  0  0  0  0  0  0  0  0  0  0  0
  -13.6110   16.4000  -10.2760 C   0  0  0  0  0  0  0  0  0  0  0  0
  -13.4100   15.3590  -11.1320 C   0  0  0  0  0  0  0  0  0  0  0  0
  -12.3140   14.5820  -10.9110 C   0  0  0  0  0  0  0  0  0  0  0  0
  -12.0040   13.5110  -11.7290 O   0  0  0  0  0  0  0  0  0  0  0  0
  -12.0500   12.1750  -11.2900 C   0  0  0  0  0  0  0  0  0  0  0  0
  -13.4340   11.7400  -10.8060 C   0  0  0  0  0  0  0  0  0  0  0  0
  -13.5240   10.2220  -10.6900 C   0  0  0  0  0  0  0  0  0  0  0  0
  -13.2070    9.6060  -11.9150 O   0  0  0  0  0  0  0  0  0  0  0  0
  -11.8640    9.8390  -12.2450 C   0  0  0  0  0  0  0  0  0  0  0  0
  -11.6470   11.3250  -12.5070 C   0  0  0  0  0  0  0  0  0  0  0  0
  -11.5040   14.8950   -9.8740 C   0  0  0  0  0  0  0  0  0  0  0  0
  -14.3290   15.2050  -12.1290 C   0  0  0  0  0  0  0  0  0  0  0  0
  -14.4720   14.3630  -13.0850 N   0  0  0  0  0  0  0  0  0  0  0  0
  -14.8210   14.3770  -14.3160 C   0  0  0  0  0  0  0  0  0  0  0  0
  -14.0750   15.0630  -15.2280 C   0  0  0  0  0  0  0  0  0  0  0  0
  -12.6300   15.9500  -14.8320 Cl  0  0  0  0  0  0  0  0  0  0  0  0
  -14.4080   15.0840  -16.5330 C   0  0  0  0  0  0  0  0  0  0  0  0
  -15.4910   14.4420  -16.9930 C   0  0  0  0  0  0  0  0  0  0  0  0
  -16.2340   13.7710  -16.1090 C   0  0  0  0  0  0  0  0  0  0  0  0
  -15.9090   13.7430  -14.8100 C   0  0  0  0  0  0  0  0  0  0  0  0
  -16.7350   13.0670  -14.1920 O   0  0  0  0  0  0  0  0  0  0  0  0
  -17.7490   12.6420  -15.1010 C   0  0  0  0  0  0  0  0  0  0  0  0
  -17.2580   13.1310  -16.3430 O   0  0  0  0  0  0  0  0  0  0  0  0
  -15.2980   16.0350  -12.1730 N   0  0  0  0  0  0  0  0  0  0  0  0
  -15.3940   16.9660  -11.3270 C   0  0  0  0  0  0  0  0  0  0  0  0
  -14.5970   17.1890  -10.3790 N   0  0  0  0  0  0  0  0  0  0  0  0
   -8.6370   12.8770   -8.4230 C   0  0  0  0  0  0  0  0  0  0  0  0
   -8.2720   11.4740   -8.9440 C   0  0  0  0  0  0  0  0  0  0  0  0
   -8.9431    8.7817   -8.9829 H   0  0  0  0  0  0  0  0  0  0  0  0
   -9.9331    9.0256  -10.4617 H   0  0  0  0  0  0  0  0  0  0  0  0
   -8.1934    9.4729  -10.4617 H   0  0  0  0  0  0  0  0  0  0  0  0
  -11.3481   10.2329   -8.7123 H   0  0  0  0  0  0  0  0  0  0  0  0
   -9.9954   10.1085   -7.5109 H   0  0  0  0  0  0  0  0  0  0  0  0
  -11.2541   12.6779   -8.5803 H   0  0  0  0  0  0  0  0  0  0  0  0
  -11.4396   11.9607   -6.9197 H   0  0  0  0  0  0  0  0  0  0  0  0
  -11.0655   14.1234   -6.6692 H   0  0  0  0  0  0  0  0  0  0  0  0
   -9.3558   14.3728   -6.0111 H   0  0  0  0  0  0  0  0  0  0  0  0
   -8.8612   15.8723   -7.5360 H   0  0  0  0  0  0  0  0  0  0  0  0
   -9.5641   14.8512   -8.8670 H   0  0  0  0  0  0  0  0  0  0  0  0
  -13.0000   17.5189   -8.5951 H   0  0  0  0  0  0  0  0  0  0  0  0
  -11.3801   12.0515  -10.4263 H   0  0  0  0  0  0  0  0  0  0  0  0
  -13.6266   12.1876   -9.8198 H   0  0  0  0  0  0  0  0  0  0  0  0
  -14.1821   12.0791  -11.5377 H   0  0  0  0  0  0  0  0  0  0  0  0
  -12.8183    9.8770   -9.9199 H   0  0  0  0  0  0  0  0  0  0  0  0
  -14.5541    9.9505  -10.4158 H   0  0  0  0  0  0  0  0  0  0  0  0
  -11.2221    9.5176  -11.4116 H   0  0  0  0  0  0  0  0  0  0  0  0
  -11.6084    9.2694  -13.1507 H   0  0  0  0  0  0  0  0  0  0  0  0
  -10.5833   11.4978  -12.7276 H   0  0  0  0  0  0  0  0  0  0  0  0
  -12.2760   11.6214  -13.3594 H   0  0  0  0  0  0  0  0  0  0  0  0
  -10.6192   14.2617   -9.7126 H   0  0  0  0  0  0  0  0  0  0  0  0
  -13.7244   15.8478  -12.7856 H   0  0  0  0  0  0  0  0  0  0  0  0
  -14.2390   13.3800  -12.7850 H   0  0  0  0  0  0  0  0  0  0  0  0
  -13.7753   15.6420  -17.2389 H   0  0  0  0  0  0  0  0  0  0  0  0
  -15.7581   14.4669  -18.0598 H   0  0  0  0  0  0  0  0  0  0  0  0
  -17.8420   11.5460  -15.1118 H   0  0  0  0  0  0  0  0  0  0  0  0
  -18.7543   13.0090  -14.8465 H   0  0  0  0  0  0  0  0  0  0  0  0
  -16.2534   17.6453  -11.4272 H   0  0  0  0  0  0  0  0  0  0  0  0
  -14.7320   17.9360   -9.7520 H   0  0  0  0  0  0  0  0  0  0  0  0
   -9.0806   13.4574   -9.2454 H   0  0  0  0  0  0  0  0  0  0  0  0
   -7.7171   13.3531   -8.0527 H   0  0  0  0  0  0  0  0  0  0  0  0
   -7.5637   11.5731   -9.7797 H   0  0  0  0  0  0  0  0  0  0  0  0
   -7.8184   10.9008   -8.1220 H   0  0  0  0  0  0  0  0  0  0  0  0
  1  2  1  0
  2  3  1  0
  3  4  1  0
  4  5  1  0
  5  6  1  0
  6  7  1  0
  7  8  1  0
  8  9  1  0
  9 10  2  0
 10 11  1  0
 11 12  2  0
 12 13  1  0
 13 14  1  0
 14 15  1  0
 15 16  1  0
 16 17  1  0
 17 18  1  0
 18 19  1  0
 19 20  1  0
 13 21  2  0
 12 22  1  0
 22 23  1  0
 23 24  1  0
 24 25  2  0
 25 26  1  0
 25 27  1  0
 27 28  2  0
 28 29  1  0
 29 30  2  0
 30 31  1  0
 31 32  1  0
 32 33  1  0
 22 34  1  0
 34 35  2  0
 35 36  1  0
  5 37  1  0
 37 38  1  0
 38  2  1  0
 21  9  1  0
 30 24  1  0
 36 11  1  0
 20 15  1  0
 33 29  1  0
  1 39  1  0
  1 40  1  0
  1 41  1  0
  3 42  1  0
  3 43  1  0
  4 44  1  0
  4 45  1  0
  6 46  1  0
  6 47  1  0
  7 48  1  0
  7 49  1  0
 10 50  1  0
 15 51  1  0
 16 52  1  0
 16 53  1  0
 17 54  1  0
 17 55  1  0
 19 56  1  0
 19 57  1  0
 20 58  1  0
 20 59  1  0
 21 60  1  0
 22 61  1  0
 23 62  1  0
 27 63  1  0
 28 64  1  0
 32 65  1  0
 32 66  1  0
 35 67  1  0
 36 68  1  0
 37 69  1  0
 37 70  1  0
 38 71  1  0
 38 72  1  0
M  END
>  <meeko>  (3)
{"is_sidechain": false}

>  <source_group>  (3)
FYN canonical

>  <source_system>  (3)
FYN_saracatinib

>  <source_run>  (3)
vina_seed5519_ex64

>  <source_seed>  (3)
5519

>  <vina_pose_rank>  (3)
3

>  <vina_affinity_kcal_mol>  (3)
-9.0050000000000008

>  <vina_rmsd_to_crystal_angstrom>  (3)
4.5167999999999999

$$$$
FYN_saracatinib__vina_seed5519_ex64__pose04
     RDKit          3D

 72 77  0  0  0  0  0  0  0  0999 V2000
   -8.4070   18.6640   -4.4350 C   0  0  0  0  0  0  0  0  0  0  0  0
   -7.9210   17.3310   -4.7470 N   0  0  0  0  0  0  0  0  0  0  0  0
   -8.5560   16.3510   -3.8840 C   0  0  0  0  0  0  0  0  0  0  0  0
   -8.1150   14.9200   -4.2250 C   0  0  0  0  0  0  0  0  0  0  0  0
   -8.3700   14.5780   -5.6210 N   0  0  0  0  0  0  0  0  0  0  0  0
   -7.8630   13.2350   -5.8820 C   0  0  0  0  0  0  0  0  0  0  0  0
   -8.8490   12.2500   -6.5320 C   0  0  0  0  0  0  0  0  0  0  0  0
  -10.1810   12.6980   -6.4650 O   0  0  0  0  0  0  0  0  0  0  0  0
  -10.7310   13.1210   -7.6500 C   0  0  0  0  0  0  0  0  0  0  0  0
  -11.2160   14.3560   -7.8220 C   0  0  0  0  0  0  0  0  0  0  0  0
  -11.7560   14.7420   -8.9870 C   0  0  0  0  0  0  0  0  0  0  0  0
  -11.8510   13.9110  -10.0630 C   0  0  0  0  0  0  0  0  0  0  0  0
  -11.3690   12.6470   -9.9100 C   0  0  0  0  0  0  0  0  0  0  0  0
  -11.3970   11.7270  -10.9420 O   0  0  0  0  0  0  0  0  0  0  0  0
  -10.8350   10.4410  -10.8350 C   0  0  0  0  0  0  0  0  0  0  0  0
  -11.8770    9.3220  -10.7980 C   0  0  0  0  0  0  0  0  0  0  0  0
  -11.2320    7.9630  -11.0480 C   0  0  0  0  0  0  0  0  0  0  0  0
  -10.5360    7.9560  -12.2700 O   0  0  0  0  0  0  0  0  0  0  0  0
   -9.4480    8.8380  -12.2170 C   0  0  0  0  0  0  0  0  0  0  0  0
   -9.9520   10.2710  -12.0820 C   0  0  0  0  0  0  0  0  0  0  0  0
  -10.8280   12.3060   -8.7180 C   0  0  0  0  0  0  0  0  0  0  0  0
  -12.4180   14.4350  -11.1880 C   0  0  0  0  0  0  0  0  0  0  0  0
  -12.6780   13.9680  -12.3530 N   0  0  0  0  0  0  0  0  0  0  0  0
  -13.6830   13.8930  -13.1430 C   0  0  0  0  0  0  0  0  0  0  0  0
  -14.6340   12.9360  -12.9450 C   0  0  0  0  0  0  0  0  0  0  0  0
  -14.5860   11.7690  -11.6540 Cl  0  0  0  0  0  0  0  0  0  0  0  0
  -15.7100   12.8410  -13.7500 C   0  0  0  0  0  0  0  0  0  0  0  0
  -15.8900   13.6740  -14.7850 C   0  0  0  0  0  0  0  0  0  0  0  0
  -14.9620   14.6120  -14.9920 C   0  0  0  0  0  0  0  0  0  0  0  0
  -13.8910   14.7160  -14.1960 C   0  0  0  0  0  0  0  0  0  0  0  0
  -13.1790   15.6470  -14.5790 O   0  0  0  0  0  0  0  0  0  0  0  0
  -13.7500   16.1990  -15.7650 C   0  0  0  0  0  0  0  0  0  0  0  0
  -14.9560   15.4550  -15.8880 O   0  0  0  0  0  0  0  0  0  0  0  0
  -12.8170   15.6460  -11.1400 N   0  0  0  0  0  0  0  0  0  0  0  0
  -12.6850   16.3320  -10.0890 C   0  0  0  0  0  0  0  0  0  0  0  0
  -12.1730   15.9380   -9.0090 N   0  0  0  0  0  0  0  0  0  0  0  0
   -7.7120   15.5700   -6.4590 C   0  0  0  0  0  0  0  0  0  0  0  0
   -8.1860   17.0000   -6.1350 C   0  0  0  0  0  0  0  0  0  0  0  0
   -8.4534   18.7912   -3.3434 H   0  0  0  0  0  0  0  0  0  0  0  0
   -7.7240   19.4127   -4.8627 H   0  0  0  0  0  0  0  0  0  0  0  0
   -9.4116   18.7974   -4.8627 H   0  0  0  0  0  0  0  0  0  0  0  0
   -8.2857   16.5677   -2.8400 H   0  0  0  0  0  0  0  0  0  0  0  0
   -9.6438   16.4182   -4.0328 H   0  0  0  0  0  0  0  0  0  0  0  0
   -7.0366   14.8264   -4.0295 H   0  0  0  0  0  0  0  0  0  0  0  0
   -8.6991   14.2302   -3.5981 H   0  0  0  0  0  0  0  0  0  0  0  0
   -6.9936   13.3286   -6.5493 H   0  0  0  0  0  0  0  0  0  0  0  0
   -7.6326   12.8108   -4.8936 H   0  0  0  0  0  0  0  0  0  0  0  0
   -8.5731   12.1205   -7.5889 H   0  0  0  0  0  0  0  0  0  0  0  0
   -8.7872   11.3013   -5.9788 H   0  0  0  0  0  0  0  0  0  0  0  0
  -11.1707   15.0717   -6.9879 H   0  0  0  0  0  0  0  0  0  0  0  0
  -10.2798   10.3626   -9.8886 H   0  0  0  0  0  0  0  0  0  0  0  0
  -12.3606    9.3139   -9.8100 H   0  0  0  0  0  0  0  0  0  0  0  0
  -12.6179    9.5081  -11.5895 H   0  0  0  0  0  0  0  0  0  0  0  0
  -10.5287    7.7423  -10.2315 H   0  0  0  0  0  0  0  0  0  0  0  0
  -12.0235    7.2002  -11.0895 H   0  0  0  0  0  0  0  0  0  0  0  0
   -8.8178    8.5892  -11.3504 H   0  0  0  0  0  0  0  0  0  0  0  0
   -8.8593    8.7452  -13.1416 H   0  0  0  0  0  0  0  0  0  0  0  0
   -9.0885   10.9480  -12.0039 H   0  0  0  0  0  0  0  0  0  0  0  0
  -10.5569   10.5098  -12.9692 H   0  0  0  0  0  0  0  0  0  0  0  0
  -10.4368   11.2833   -8.6127 H   0  0  0  0  0  0  0  0  0  0  0  0
  -11.4260   14.7564  -11.5382 H   0  0  0  0  0  0  0  0  0  0  0  0
  -11.8350   13.5170  -12.7960 H   0  0  0  0  0  0  0  0  0  0  0  0
  -16.4597   12.0604  -13.5532 H   0  0  0  0  0  0  0  0  0  0  0  0
  -16.7698   13.5881  -15.4397 H   0  0  0  0  0  0  0  0  0  0  0  0
  -13.9538   17.2736  -15.6475 H   0  0  0  0  0  0  0  0  0  0  0  0
  -13.0949   16.1296  -16.6459 H   0  0  0  0  0  0  0  0  0  0  0  0
  -13.0508   17.3689  -10.1197 H   0  0  0  0  0  0  0  0  0  0  0  0
  -12.1010   16.5280   -8.2230 H   0  0  0  0  0  0  0  0  0  0  0  0
   -6.6259   15.5096   -6.2957 H   0  0  0  0  0  0  0  0  0  0  0  0
   -7.9675   15.3550   -7.5071 H   0  0  0  0  0  0  0  0  0  0  0  0
   -7.6533   17.7116   -6.7830 H   0  0  0  0  0  0  0  0  0  0  0  0
   -9.2704   17.0590   -6.3097 H   0  0  0  0  0  0  0  0  0  0  0  0
  1  2  1  0
  2  3  1  0
  3  4  1  0
  4  5  1  0
  5  6  1  0
  6  7  1  0
  7  8  1  0
  8  9  1  0
  9 10  2  0
 10 11  1  0
 11 12  2  0
 12 13  1  0
 13 14  1  0
 14 15  1  0
 15 16  1  0
 16 17  1  0
 17 18  1  0
 18 19  1  0
 19 20  1  0
 13 21  2  0
 12 22  1  0
 22 23  1  0
 23 24  1  0
 24 25  2  0
 25 26  1  0
 25 27  1  0
 27 28  2  0
 28 29  1  0
 29 30  2  0
 30 31  1  0
 31 32  1  0
 32 33  1  0
 22 34  1  0
 34 35  2  0
 35 36  1  0
  5 37  1  0
 37 38  1  0
 38  2  1  0
 21  9  1  0
 30 24  1  0
 36 11  1  0
 20 15  1  0
 33 29  1  0
  1 39  1  0
  1 40  1  0
  1 41  1  0
  3 42  1  0
  3 43  1  0
  4 44  1  0
  4 45  1  0
  6 46  1  0
  6 47  1  0
  7 48  1  0
  7 49  1  0
 10 50  1  0
 15 51  1  0
 16 52  1  0
 16 53  1  0
 17 54  1  0
 17 55  1  0
 19 56  1  0
 19 57  1  0
 20 58  1  0
 20 59  1  0
 21 60  1  0
 22 61  1  0
 23 62  1  0
 27 63  1  0
 28 64  1  0
 32 65  1  0
 32 66  1  0
 35 67  1  0
 36 68  1  0
 37 69  1  0
 37 70  1  0
 38 71  1  0
 38 72  1  0
M  END
>  <meeko>  (4)
{"is_sidechain": false}

>  <source_group>  (4)
FYN canonical

>  <source_system>  (4)
FYN_saracatinib

>  <source_run>  (4)
vina_seed5519_ex64

>  <source_seed>  (4)
5519

>  <vina_pose_rank>  (4)
4

>  <vina_affinity_kcal_mol>  (4)
-8.9199999999999999

>  <vina_rmsd_to_crystal_angstrom>  (4)
2.7648999999999999

$$$$
FYN_saracatinib__vina_seed5519_ex64__pose05
     RDKit          3D

 72 77  0  0  0  0  0  0  0  0999 V2000
   -7.2800    9.1830   -7.9240 C   0  0  0  0  0  0  0  0  0  0  0  0
   -7.5640   10.5700   -7.5970 N   0  0  0  0  0  0  0  0  0  0  0  0
   -8.8240   10.6680   -6.8810 C   0  0  0  0  0  0  0  0  0  0  0  0
   -9.1290   12.1130   -6.4610 C   0  0  0  0  0  0  0  0  0  0  0  0
   -8.0610   12.6940   -5.6520 N   0  0  0  0  0  0  0  0  0  0  0  0
   -8.3940   14.0830   -5.3530 C   0  0  0  0  0  0  0  0  0  0  0  0
   -8.3750   15.0590   -6.5410 C   0  0  0  0  0  0  0  0  0  0  0  0
   -9.5390   15.8480   -6.6070 O   0  0  0  0  0  0  0  0  0  0  0  0
  -10.3100   15.6820   -7.7310 C   0  0  0  0  0  0  0  0  0  0  0  0
  -11.3860   16.4360   -7.9860 C   0  0  0  0  0  0  0  0  0  0  0  0
  -12.1280   16.2490   -9.0880 C   0  0  0  0  0  0  0  0  0  0  0  0
  -11.8450   15.2860  -10.0090 C   0  0  0  0  0  0  0  0  0  0  0  0
  -10.7580   14.5020   -9.7670 C   0  0  0  0  0  0  0  0  0  0  0  0
  -10.3680   13.5080  -10.6450 O   0  0  0  0  0  0  0  0  0  0  0  0
  -10.3200   12.1480  -10.2870 C   0  0  0  0  0  0  0  0  0  0  0  0
  -11.4610   11.7200   -9.3640 C   0  0  0  0  0  0  0  0  0  0  0  0
  -11.5770   10.2010   -9.3010 C   0  0  0  0  0  0  0  0  0  0  0  0
  -11.7450    9.6570  -10.5870 O   0  0  0  0  0  0  0  0  0  0  0  0
  -10.5970    9.8740  -11.3620 C   0  0  0  0  0  0  0  0  0  0  0  0
  -10.4150   11.3680  -11.6080 C   0  0  0  0  0  0  0  0  0  0  0  0
  -10.0370   14.7340   -8.6460 C   0  0  0  0  0  0  0  0  0  0  0  0
  -12.6800   15.2090  -11.0850 C   0  0  0  0  0  0  0  0  0  0  0  0
  -12.7340   14.4490  -12.1170 N   0  0  0  0  0  0  0  0  0  0  0  0
  -13.5970   14.1090  -13.0000 C   0  0  0  0  0  0  0  0  0  0  0  0
  -14.3650   13.0000  -12.8080 C   0  0  0  0  0  0  0  0  0  0  0  0
  -14.2630   11.9760  -11.4030 Cl  0  0  0  0  0  0  0  0  0  0  0  0
  -15.2910   12.6240  -13.7120 C   0  0  0  0  0  0  0  0  0  0  0  0
  -15.4910   13.3150  -14.8420 C   0  0  0  0  0  0  0  0  0  0  0  0
  -14.7400   14.4010  -15.0440 C   0  0  0  0  0  0  0  0  0  0  0  0
  -13.8190   14.7840  -14.1510 C   0  0  0  0  0  0  0  0  0  0  0  0
  -13.2550   15.8050  -14.5490 O   0  0  0  0  0  0  0  0  0  0  0  0
  -13.7630   16.1310  -15.8420 C   0  0  0  0  0  0  0  0  0  0  0  0
  -14.7800   15.1520  -16.0180 O   0  0  0  0  0  0  0  0  0  0  0  0
  -13.6550   16.0310  -11.1370 N   0  0  0  0  0  0  0  0  0  0  0  0
  -13.8320   16.8860  -10.2260 C   0  0  0  0  0  0  0  0  0  0  0  0
  -13.1150   17.0350   -9.2030 N   0  0  0  0  0  0  0  0  0  0  0  0
   -6.8170   12.5910   -6.4000 C   0  0  0  0  0  0  0  0  0  0  0  0
   -6.5000   11.1340   -6.7870 C   0  0  0  0  0  0  0  0  0  0  0  0
   -7.1615    8.6044   -6.9960 H   0  0  0  0  0  0  0  0  0  0  0  0
   -8.1116    8.7672   -8.5118 H   0  0  0  0  0  0  0  0  0  0  0  0
   -6.3519    9.1275   -8.5118 H   0  0  0  0  0  0  0  0  0  0  0  0
   -9.6334   10.3082   -7.5333 H   0  0  0  0  0  0  0  0  0  0  0  0
   -8.7489   10.0554   -5.9705 H   0  0  0  0  0  0  0  0  0  0  0  0
   -9.2590   12.7242   -7.3663 H   0  0  0  0  0  0  0  0  0  0  0  0
  -10.0435   12.0991   -5.8498 H   0  0  0  0  0  0  0  0  0  0  0  0
   -9.4058   14.0997   -4.9217 H   0  0  0  0  0  0  0  0  0  0  0  0
   -7.6043   14.4340   -4.6724 H   0  0  0  0  0  0  0  0  0  0  0  0
   -7.5038   15.7228   -6.4388 H   0  0  0  0  0  0  0  0  0  0  0  0
   -8.3218   14.4626   -7.4637 H   0  0  0  0  0  0  0  0  0  0  0  0
  -11.6684   17.2271   -7.2758 H   0  0  0  0  0  0  0  0  0  0  0  0
   -9.3943   11.9512   -9.7264 H   0  0  0  0  0  0  0  0  0  0  0  0
  -11.2694   12.1077   -8.3526 H   0  0  0  0  0  0  0  0  0  0  0  0
  -12.4028   12.1257   -9.7621 H   0  0  0  0  0  0  0  0  0  0  0  0
  -10.6616    9.7882   -8.8520 H   0  0  0  0  0  0  0  0  0  0  0  0
  -12.4549    9.9404   -8.6916 H   0  0  0  0  0  0  0  0  0  0  0  0
   -9.7177    9.4816  -10.8301 H   0  0  0  0  0  0  0  0  0  0  0  0
  -10.7071    9.3576  -12.3270 H   0  0  0  0  0  0  0  0  0  0  0  0
   -9.4910   11.5257  -12.1836 H   0  0  0  0  0  0  0  0  0  0  0  0
  -11.2899   11.7357  -12.1642 H   0  0  0  0  0  0  0  0  0  0  0  0
   -9.1579   14.0971   -8.4685 H   0  0  0  0  0  0  0  0  0  0  0  0
  -12.0356   15.9104  -11.6353 H   0  0  0  0  0  0  0  0  0  0  0  0
  -11.8170   13.9630  -12.3000 H   0  0  0  0  0  0  0  0  0  0  0  0
  -15.8977   11.7274  -13.5171 H   0  0  0  0  0  0  0  0  0  0  0  0
  -16.2463   12.9996  -15.5769 H   0  0  0  0  0  0  0  0  0  0  0  0
  -14.1805   17.1485  -15.8621 H   0  0  0  0  0  0  0  0  0  0  0  0
  -12.9986   16.1224  -16.6330 H   0  0  0  0  0  0  0  0  0  0  0  0
  -14.6919   17.5630  -10.3364 H   0  0  0  0  0  0  0  0  0  0  0  0
  -13.3110   17.7250   -8.5280 H   0  0  0  0  0  0  0  0  0  0  0  0
   -6.9024   13.1923   -7.3171 H   0  0  0  0  0  0  0  0  0  0  0  0
   -6.0020   12.9593   -5.7596 H   0  0  0  0  0  0  0  0  0  0  0  0
   -5.5606   11.1095   -7.3587 H   0  0  0  0  0  0  0  0  0  0  0  0
   -6.4055   10.5386   -5.8669 H   0  0  0  0  0  0  0  0  0  0  0  0
  1  2  1  0
  2  3  1  0
  3  4  1  0
  4  5  1  0
  5  6  1  0
  6  7  1  0
  7  8  1  0
  8  9  1  0
  9 10  2  0
 10 11  1  0
 11 12  2  0
 12 13  1  0
 13 14  1  0
 14 15  1  0
 15 16  1  0
 16 17  1  0
 17 18  1  0
 18 19  1  0
 19 20  1  0
 13 21  2  0
 12 22  1  0
 22 23  1  0
 23 24  1  0
 24 25  2  0
 25 26  1  0
 25 27  1  0
 27 28  2  0
 28 29  1  0
 29 30  2  0
 30 31  1  0
 31 32  1  0
 32 33  1  0
 22 34  1  0
 34 35  2  0
 35 36  1  0
  5 37  1  0
 37 38  1  0
 38  2  1  0
 21  9  1  0
 30 24  1  0
 36 11  1  0
 20 15  1  0
 33 29  1  0
  1 39  1  0
  1 40  1  0
  1 41  1  0
  3 42  1  0
  3 43  1  0
  4 44  1  0
  4 45  1  0
  6 46  1  0
  6 47  1  0
  7 48  1  0
  7 49  1  0
 10 50  1  0
 15 51  1  0
 16 52  1  0
 16 53  1  0
 17 54  1  0
 17 55  1  0
 19 56  1  0
 19 57  1  0
 20 58  1  0
 20 59  1  0
 21 60  1  0
 22 61  1  0
 23 62  1  0
 27 63  1  0
 28 64  1  0
 32 65  1  0
 32 66  1  0
 35 67  1  0
 36 68  1  0
 37 69  1  0
 37 70  1  0
 38 71  1  0
 38 72  1  0
M  END
>  <meeko>  (5)
{"is_sidechain": false}

>  <source_group>  (5)
FYN canonical

>  <source_system>  (5)
FYN_saracatinib

>  <source_run>  (5)
vina_seed5519_ex64

>  <source_seed>  (5)
5519

>  <vina_pose_rank>  (5)
5

>  <vina_affinity_kcal_mol>  (5)
-8.9120000000000008

>  <vina_rmsd_to_crystal_angstrom>  (5)
3.3441000000000001

$$$$
FYN_saracatinib__vina_seed5519_ex64__pose06
     RDKit          3D

 72 77  0  0  0  0  0  0  0  0999 V2000
   -7.3700   21.9210   -3.9680 C   0  0  0  0  0  0  0  0  0  0  0  0
   -7.5730   20.5900   -4.5140 N   0  0  0  0  0  0  0  0  0  0  0  0
   -6.3590   20.1220   -5.1580 C   0  0  0  0  0  0  0  0  0  0  0  0
   -6.5130   18.6910   -5.6930 C   0  0  0  0  0  0  0  0  0  0  0  0
   -6.9070   17.7470   -4.6510 N   0  0  0  0  0  0  0  0  0  0  0  0
   -7.0990   16.4310   -5.2490 C   0  0  0  0  0  0  0  0  0  0  0  0
   -7.9300   16.3840   -6.5430 C   0  0  0  0  0  0  0  0  0  0  0  0
   -9.2800   16.0650   -6.3030 O   0  0  0  0  0  0  0  0  0  0  0  0
  -10.0540   15.8610   -7.4190 C   0  0  0  0  0  0  0  0  0  0  0  0
  -11.1410   16.5930   -7.6880 C   0  0  0  0  0  0  0  0  0  0  0  0
  -11.8840   16.3690   -8.7800 C   0  0  0  0  0  0  0  0  0  0  0  0
  -11.5920   15.3870   -9.6790 C   0  0  0  0  0  0  0  0  0  0  0  0
  -10.4930   14.6250   -9.4230 C   0  0  0  0  0  0  0  0  0  0  0  0
  -10.0930   13.6140  -10.2770 O   0  0  0  0  0  0  0  0  0  0  0  0
   -9.9920   12.2690   -9.8750 C   0  0  0  0  0  0  0  0  0  0  0  0
  -11.0730   11.8470   -8.8790 C   0  0  0  0  0  0  0  0  0  0  0  0
  -11.1470   10.3290   -8.7580 C   0  0  0  0  0  0  0  0  0  0  0  0
  -11.3680    9.7360  -10.0140 O   0  0  0  0  0  0  0  0  0  0  0  0
  -10.2670    9.9520  -10.8550 C   0  0  0  0  0  0  0  0  0  0  0  0
  -10.1370   11.4400  -11.1620 C   0  0  0  0  0  0  0  0  0  0  0  0
   -9.7710   14.8940   -8.3110 C   0  0  0  0  0  0  0  0  0  0  0  0
  -12.4310   15.2720  -10.7490 C   0  0  0  0  0  0  0  0  0  0  0  0
  -12.4790   14.4860  -11.7610 N   0  0  0  0  0  0  0  0  0  0  0  0
  -13.3460   14.0960  -12.6180 C   0  0  0  0  0  0  0  0  0  0  0  0
  -14.0710   12.9650  -12.3870 C   0  0  0  0  0  0  0  0  0  0  0  0
  -13.9040   11.9770  -10.9640 Cl  0  0  0  0  0  0  0  0  0  0  0  0
  -15.0010   12.5370  -13.2640 C   0  0  0  0  0  0  0  0  0  0  0  0
  -15.2470   13.1960  -14.4040 C   0  0  0  0  0  0  0  0  0  0  0  0
  -14.5400   14.3020  -14.6450 C   0  0  0  0  0  0  0  0  0  0  0  0
  -13.6150   14.7370  -13.7790 C   0  0  0  0  0  0  0  0  0  0  0  0
  -13.0960   15.7680  -14.2100 O   0  0  0  0  0  0  0  0  0  0  0  0
  -13.6400   16.0480  -15.4990 C   0  0  0  0  0  0  0  0  0  0  0  0
  -14.6250   15.0300  -15.6330 O   0  0  0  0  0  0  0  0  0  0  0  0
  -13.4170   16.0790  -10.8170 N   0  0  0  0  0  0  0  0  0  0  0  0
  -13.6020   16.9540   -9.9270 C   0  0  0  0  0  0  0  0  0  0  0  0
  -12.8830   17.1380   -8.9110 N   0  0  0  0  0  0  0  0  0  0  0  0
   -8.1300   18.2370   -4.0330 C   0  0  0  0  0  0  0  0  0  0  0  0
   -7.9580   19.6600   -3.4680 C   0  0  0  0  0  0  0  0  0  0  0  0
   -7.3775   21.8716   -2.8691 H   0  0  0  0  0  0  0  0  0  0  0  0
   -6.4015   22.3141   -4.3107 H   0  0  0  0  0  0  0  0  0  0  0  0
   -8.1773   22.5850   -4.3107 H   0  0  0  0  0  0  0  0  0  0  0  0
   -6.1199   20.7920   -5.9970 H   0  0  0  0  0  0  0  0  0  0  0  0
   -5.5528   20.1225   -4.4097 H   0  0  0  0  0  0  0  0  0  0  0  0
   -7.2811   18.6889   -6.4804 H   0  0  0  0  0  0  0  0  0  0  0  0
   -5.5353   18.3715   -6.0830 H   0  0  0  0  0  0  0  0  0  0  0  0
   -6.1050   16.0171   -5.4740 H   0  0  0  0  0  0  0  0  0  0  0  0
   -7.6749   15.8546   -4.5100 H   0  0  0  0  0  0  0  0  0  0  0  0
   -7.8811   17.3690   -7.0301 H   0  0  0  0  0  0  0  0  0  0  0  0
   -7.5081   15.5958   -7.1839 H   0  0  0  0  0  0  0  0  0  0  0  0
  -11.4315   17.3976   -6.9964 H   0  0  0  0  0  0  0  0  0  0  0  0
   -9.0336   12.1146   -9.3576 H   0  0  0  0  0  0  0  0  0  0  0  0
  -10.8394   12.2748   -7.8929 H   0  0  0  0  0  0  0  0  0  0  0  0
  -12.0440   12.2159   -9.2409 H   0  0  0  0  0  0  0  0  0  0  0  0
  -10.1992    9.9540   -8.3443 H   0  0  0  0  0  0  0  0  0  0  0  0
  -11.9850   10.0696   -8.0943 H   0  0  0  0  0  0  0  0  0  0  0  0
   -9.3517    9.6005  -10.3563 H   0  0  0  0  0  0  0  0  0  0  0  0
  -10.4127    9.3983  -11.7942 H   0  0  0  0  0  0  0  0  0  0  0  0
   -9.2493   11.5991  -11.7918 H   0  0  0  0  0  0  0  0  0  0  0  0
  -11.0493   11.7666  -11.6826 H   0  0  0  0  0  0  0  0  0  0  0  0
   -8.8828   14.2735   -8.1211 H   0  0  0  0  0  0  0  0  0  0  0  0
  -11.7987   15.9681  -11.3196 H   0  0  0  0  0  0  0  0  0  0  0  0
  -11.5500   14.0260  -11.9500 H   0  0  0  0  0  0  0  0  0  0  0  0
  -15.5718   11.6243  -13.0380 H   0  0  0  0  0  0  0  0  0  0  0  0
  -16.0050   12.8382  -15.1164 H   0  0  0  0  0  0  0  0  0  0  0  0
  -14.0936   17.0496  -15.5322 H   0  0  0  0  0  0  0  0  0  0  0  0
  -12.8915   16.0492  -16.3051 H   0  0  0  0  0  0  0  0  0  0  0  0
  -14.4713   17.6165  -10.0506 H   0  0  0  0  0  0  0  0  0  0  0  0
  -13.0850   17.8430   -8.2520 H   0  0  0  0  0  0  0  0  0  0  0  0
   -8.9300   18.2484   -4.7879 H   0  0  0  0  0  0  0  0  0  0  0  0
   -8.3822   17.5668   -3.1980 H   0  0  0  0  0  0  0  0  0  0  0  0
   -8.9098   19.9893   -3.0258 H   0  0  0  0  0  0  0  0  0  0  0  0
   -7.1657   19.6417   -2.7051 H   0  0  0  0  0  0  0  0  0  0  0  0
  1  2  1  0
  2  3  1  0
  3  4  1  0
  4  5  1  0
  5  6  1  0
  6  7  1  0
  7  8  1  0
  8  9  1  0
  9 10  2  0
 10 11  1  0
 11 12  2  0
 12 13  1  0
 13 14  1  0
 14 15  1  0
 15 16  1  0
 16 17  1  0
 17 18  1  0
 18 19  1  0
 19 20  1  0
 13 21  2  0
 12 22  1  0
 22 23  1  0
 23 24  1  0
 24 25  2  0
 25 26  1  0
 25 27  1  0
 27 28  2  0
 28 29  1  0
 29 30  2  0
 30 31  1  0
 31 32  1  0
 32 33  1  0
 22 34  1  0
 34 35  2  0
 35 36  1  0
  5 37  1  0
 37 38  1  0
 38  2  1  0
 21  9  1  0
 30 24  1  0
 36 11  1  0
 20 15  1  0
 33 29  1  0
  1 39  1  0
  1 40  1  0
  1 41  1  0
  3 42  1  0
  3 43  1  0
  4 44  1  0
  4 45  1  0
  6 46  1  0
  6 47  1  0
  7 48  1  0
  7 49  1  0
 10 50  1  0
 15 51  1  0
 16 52  1  0
 16 53  1  0
 17 54  1  0
 17 55  1  0
 19 56  1  0
 19 57  1  0
 20 58  1  0
 20 59  1  0
 21 60  1  0
 22 61  1  0
 23 62  1  0
 27 63  1  0
 28 64  1  0
 32 65  1  0
 32 66  1  0
 35 67  1  0
 36 68  1  0
 37 69  1  0
 37 70  1  0
 38 71  1  0
 38 72  1  0
M  END
>  <meeko>  (6)
{"is_sidechain": false}

>  <source_group>  (6)
FYN canonical

>  <source_system>  (6)
FYN_saracatinib

>  <source_run>  (6)
vina_seed5519_ex64

>  <source_seed>  (6)
5519

>  <vina_pose_rank>  (6)
6

>  <vina_affinity_kcal_mol>  (6)
-8.8780000000000001

>  <vina_rmsd_to_crystal_angstrom>  (6)
2.0194999999999999

$$$$
FYN_saracatinib__vina_seed5519_ex64__pose07
     RDKit          3D

 72 77  0  0  0  0  0  0  0  0999 V2000
   -7.4200   21.9300   -3.9490 C   0  0  0  0  0  0  0  0  0  0  0  0
   -7.6710   20.5820   -4.4290 N   0  0  0  0  0  0  0  0  0  0  0  0
   -6.5550   20.1200   -5.2350 C   0  0  0  0  0  0  0  0  0  0  0  0
   -6.7540   18.6740   -5.7090 C   0  0  0  0  0  0  0  0  0  0  0  0
   -6.9700   17.7500   -4.5990 N   0  0  0  0  0  0  0  0  0  0  0  0
   -7.2180   16.4150   -5.1330 C   0  0  0  0  0  0  0  0  0  0  0  0
   -7.9900   16.3450   -6.4620 C   0  0  0  0  0  0  0  0  0  0  0  0
   -9.3810   16.2410   -6.2710 O   0  0  0  0  0  0  0  0  0  0  0  0
  -10.1240   16.0110   -7.4020 C   0  0  0  0  0  0  0  0  0  0  0  0
  -11.2330   16.7010   -7.6910 C   0  0  0  0  0  0  0  0  0  0  0  0
  -11.9460   16.4520   -8.7980 C   0  0  0  0  0  0  0  0  0  0  0  0
  -11.5990   15.4850   -9.6930 C   0  0  0  0  0  0  0  0  0  0  0  0
  -10.4770   14.7640   -9.4170 C   0  0  0  0  0  0  0  0  0  0  0  0
  -10.0220   13.7720  -10.2660 O   0  0  0  0  0  0  0  0  0  0  0  0
   -9.4530   12.5720   -9.8020 C   0  0  0  0  0  0  0  0  0  0  0  0
  -10.4890   11.5330   -9.3710 C   0  0  0  0  0  0  0  0  0  0  0  0
   -9.8580   10.1520   -9.2290 C   0  0  0  0  0  0  0  0  0  0  0  0
   -9.2290    9.7630  -10.4260 O   0  0  0  0  0  0  0  0  0  0  0  0
   -8.1400   10.6030  -10.7000 C   0  0  0  0  0  0  0  0  0  0  0  0
   -8.6380   12.0160  -10.9820 C   0  0  0  0  0  0  0  0  0  0  0  0
   -9.7870   15.0580   -8.2910 C   0  0  0  0  0  0  0  0  0  0  0  0
  -12.4120   15.3410  -10.7790 C   0  0  0  0  0  0  0  0  0  0  0  0
  -12.4100   14.5570  -11.7940 N   0  0  0  0  0  0  0  0  0  0  0  0
  -13.2520   13.8410  -12.4410 C   0  0  0  0  0  0  0  0  0  0  0  0
  -13.7040   14.2570  -13.6580 C   0  0  0  0  0  0  0  0  0  0  0  0
  -13.2040   15.7360  -14.4280 Cl  0  0  0  0  0  0  0  0  0  0  0  0
  -14.5790   13.5190  -14.3700 C   0  0  0  0  0  0  0  0  0  0  0  0
  -15.0510   12.3520  -13.9110 C   0  0  0  0  0  0  0  0  0  0  0  0
  -14.6210   11.9370  -12.7170 C   0  0  0  0  0  0  0  0  0  0  0  0
  -13.7490   12.6620  -12.0030 C   0  0  0  0  0  0  0  0  0  0  0  0
  -13.4990   12.0840  -10.9440 O   0  0  0  0  0  0  0  0  0  0  0  0
  -14.2960   10.9020  -10.8700 C   0  0  0  0  0  0  0  0  0  0  0  0
  -14.9440   10.9020  -12.1370 O   0  0  0  0  0  0  0  0  0  0  0  0
  -13.4270   16.1100  -10.8650 N   0  0  0  0  0  0  0  0  0  0  0  0
  -13.6630   16.9740   -9.9760 C   0  0  0  0  0  0  0  0  0  0  0  0
  -12.9710   17.1830   -8.9460 N   0  0  0  0  0  0  0  0  0  0  0  0
   -8.1000   18.2330   -3.8190 C   0  0  0  0  0  0  0  0  0  0  0  0
   -7.8780   19.6720   -3.3170 C   0  0  0  0  0  0  0  0  0  0  0  0
   -7.4194   21.9334   -2.8490 H   0  0  0  0  0  0  0  0  0  0  0  0
   -6.4423   22.2743   -4.3173 H   0  0  0  0  0  0  0  0  0  0  0  0
   -8.2083   22.6031   -4.3173 H   0  0  0  0  0  0  0  0  0  0  0  0
   -6.4571   20.7728   -6.1149 H   0  0  0  0  0  0  0  0  0  0  0  0
   -5.6476   20.1543   -4.6141 H   0  0  0  0  0  0  0  0  0  0  0  0
   -7.6290   18.6375   -6.3746 H   0  0  0  0  0  0  0  0  0  0  0  0
   -5.8374   18.3628   -6.2315 H   0  0  0  0  0  0  0  0  0  0  0  0
   -6.2432   15.9287   -5.2856 H   0  0  0  0  0  0  0  0  0  0  0  0
   -7.8625   15.9181   -4.3929 H   0  0  0  0  0  0  0  0  0  0  0  0
   -7.7803   17.2567   -7.0406 H   0  0  0  0  0  0  0  0  0  0  0  0
   -7.6568   15.4427   -6.9957 H   0  0  0  0  0  0  0  0  0  0  0  0
  -11.5677   17.4917   -7.0035 H   0  0  0  0  0  0  0  0  0  0  0  0
   -8.8471   12.7782   -8.9074 H   0  0  0  0  0  0  0  0  0  0  0  0
  -10.9172   11.8332   -8.4033 H   0  0  0  0  0  0  0  0  0  0  0  0
  -11.2720   11.4809  -10.1418 H   0  0  0  0  0  0  0  0  0  0  0  0
   -9.1114   10.1783   -8.4216 H   0  0  0  0  0  0  0  0  0  0  0  0
  -10.6502    9.4254   -8.9955 H   0  0  0  0  0  0  0  0  0  0  0  0
   -7.4642   10.6200   -9.8323 H   0  0  0  0  0  0  0  0  0  0  0  0
   -7.6011   10.2245  -11.5811 H   0  0  0  0  0  0  0  0  0  0  0  0
   -7.7725   12.6714  -11.1591 H   0  0  0  0  0  0  0  0  0  0  0  0
   -9.2906   11.9819  -11.8668 H   0  0  0  0  0  0  0  0  0  0  0  0
   -8.8790   14.4721   -8.0858 H   0  0  0  0  0  0  0  0  0  0  0  0
  -11.7965   16.0631  -11.3355 H   0  0  0  0  0  0  0  0  0  0  0  0
  -11.4530   14.4680  -12.2250 H   0  0  0  0  0  0  0  0  0  0  0  0
  -14.9138   13.8839  -15.3522 H   0  0  0  0  0  0  0  0  0  0  0  0
  -15.7671   11.7571  -14.4969 H   0  0  0  0  0  0  0  0  0  0  0  0
  -13.6710   10.0061  -10.7408 H   0  0  0  0  0  0  0  0  0  0  0  0
  -14.9903   10.8880  -10.0169 H   0  0  0  0  0  0  0  0  0  0  0  0
  -14.5555   17.6020  -10.1141 H   0  0  0  0  0  0  0  0  0  0  0  0
  -13.2130   17.8770   -8.2900 H   0  0  0  0  0  0  0  0  0  0  0  0
   -9.0019   18.2111   -4.4484 H   0  0  0  0  0  0  0  0  0  0  0  0
   -8.2128   17.5794   -2.9415 H   0  0  0  0  0  0  0  0  0  0  0  0
   -8.7616   19.9950   -2.7469 H   0  0  0  0  0  0  0  0  0  0  0  0
   -6.9824   19.6875   -2.6786 H   0  0  0  0  0  0  0  0  0  0  0  0
  1  2  1  0
  2  3  1  0
  3  4  1  0
  4  5  1  0
  5  6  1  0
  6  7  1  0
  7  8  1  0
  8  9  1  0
  9 10  2  0
 10 11  1  0
 11 12  2  0
 12 13  1  0
 13 14  1  0
 14 15  1  0
 15 16  1  0
 16 17  1  0
 17 18  1  0
 18 19  1  0
 19 20  1  0
 13 21  2  0
 12 22  1  0
 22 23  1  0
 23 24  1  0
 24 25  2  0
 25 26  1  0
 25 27  1  0
 27 28  2  0
 28 29  1  0
 29 30  2  0
 30 31  1  0
 31 32  1  0
 32 33  1  0
 22 34  1  0
 34 35  2  0
 35 36  1  0
  5 37  1  0
 37 38  1  0
 38  2  1  0
 21  9  1  0
 30 24  1  0
 36 11  1  0
 20 15  1  0
 33 29  1  0
  1 39  1  0
  1 40  1  0
  1 41  1  0
  3 42  1  0
  3 43  1  0
  4 44  1  0
  4 45  1  0
  6 46  1  0
  6 47  1  0
  7 48  1  0
  7 49  1  0
 10 50  1  0
 15 51  1  0
 16 52  1  0
 16 53  1  0
 17 54  1  0
 17 55  1  0
 19 56  1  0
 19 57  1  0
 20 58  1  0
 20 59  1  0
 21 60  1  0
 22 61  1  0
 23 62  1  0
 27 63  1  0
 28 64  1  0
 32 65  1  0
 32 66  1  0
 35 67  1  0
 36 68  1  0
 37 69  1  0
 37 70  1  0
 38 71  1  0
 38 72  1  0
M  END
>  <meeko>  (7)
{"is_sidechain": false}

>  <source_group>  (7)
FYN canonical

>  <source_system>  (7)
FYN_saracatinib

>  <source_run>  (7)
vina_seed5519_ex64

>  <source_seed>  (7)
5519

>  <vina_pose_rank>  (7)
7

>  <vina_affinity_kcal_mol>  (7)
-8.6679999999999993

>  <vina_rmsd_to_crystal_angstrom>  (7)
2.7917000000000001

$$$$
FYN_saracatinib__vina_seed5519_ex64__pose08
     RDKit          3D

 72 77  0  0  0  0  0  0  0  0999 V2000
   -7.0760   15.0710   -1.9440 C   0  0  0  0  0  0  0  0  0  0  0  0
   -7.3410   15.8920   -3.1120 N   0  0  0  0  0  0  0  0  0  0  0  0
   -7.3610   15.0710   -4.3090 C   0  0  0  0  0  0  0  0  0  0  0  0
   -7.7020   15.8950   -5.5590 C   0  0  0  0  0  0  0  0  0  0  0  0
   -8.9740   16.5990   -5.4310 N   0  0  0  0  0  0  0  0  0  0  0  0
   -9.1930   17.4080   -6.6250 C   0  0  0  0  0  0  0  0  0  0  0  0
  -10.5180   17.1780   -7.3710 C   0  0  0  0  0  0  0  0  0  0  0  0
  -10.6510   15.8550   -7.8350 O   0  0  0  0  0  0  0  0  0  0  0  0
  -11.5130   15.6750   -8.8880 C   0  0  0  0  0  0  0  0  0  0  0  0
  -12.5290   16.5080   -9.1410 C   0  0  0  0  0  0  0  0  0  0  0  0
  -13.3620   16.3040  -10.1720 C   0  0  0  0  0  0  0  0  0  0  0  0
  -13.2370   15.2450  -11.0200 C   0  0  0  0  0  0  0  0  0  0  0  0
  -12.2140   14.3800  -10.7780 C   0  0  0  0  0  0  0  0  0  0  0  0
  -11.9830   13.2820  -11.5860 O   0  0  0  0  0  0  0  0  0  0  0  0
  -11.9870   11.9610  -11.1000 C   0  0  0  0  0  0  0  0  0  0  0  0
  -13.3760   11.3230  -11.0830 C   0  0  0  0  0  0  0  0  0  0  0  0
  -13.2850    9.8110  -10.9040 C   0  0  0  0  0  0  0  0  0  0  0  0
  -12.4830    9.2350  -11.9060 O   0  0  0  0  0  0  0  0  0  0  0  0
  -11.1560    9.6690  -11.7790 C   0  0  0  0  0  0  0  0  0  0  0  0
  -11.0750   11.1680  -12.0500 C   0  0  0  0  0  0  0  0  0  0  0  0
  -11.3960   14.6310   -9.7300 C   0  0  0  0  0  0  0  0  0  0  0  0
  -14.1510   15.1620  -12.0290 C   0  0  0  0  0  0  0  0  0  0  0  0
  -14.3500   14.3290  -12.9830 N   0  0  0  0  0  0  0  0  0  0  0  0
  -14.7080   14.3610  -14.2110 C   0  0  0  0  0  0  0  0  0  0  0  0
  -13.9350   15.0090  -15.1290 C   0  0  0  0  0  0  0  0  0  0  0  0
  -12.4430   15.8200  -14.7440 Cl  0  0  0  0  0  0  0  0  0  0  0  0
  -14.2770   15.0480  -16.4310 C   0  0  0  0  0  0  0  0  0  0  0  0
  -15.3960   14.4640  -16.8820 C   0  0  0  0  0  0  0  0  0  0  0  0
  -16.1650   13.8310  -15.9920 C   0  0  0  0  0  0  0  0  0  0  0  0
  -15.8320   13.7850  -14.6960 C   0  0  0  0  0  0  0  0  0  0  0  0
  -16.6860   13.1520  -14.0720 O   0  0  0  0  0  0  0  0  0  0  0  0
  -17.7280   12.7810  -14.9730 C   0  0  0  0  0  0  0  0  0  0  0  0
  -17.2230   13.2450  -16.2190 O   0  0  0  0  0  0  0  0  0  0  0  0
  -15.0460   16.0700  -12.0920 N   0  0  0  0  0  0  0  0  0  0  0  0
  -15.0770   17.0110  -11.2520 C   0  0  0  0  0  0  0  0  0  0  0  0
  -14.2780   17.1720  -10.2940 N   0  0  0  0  0  0  0  0  0  0  0  0
   -8.9190   17.4200   -4.2310 C   0  0  0  0  0  0  0  0  0  0  0  0
   -8.6110   16.5820   -2.9750 C   0  0  0  0  0  0  0  0  0  0  0  0
   -7.2653   15.6576   -1.0329 H   0  0  0  0  0  0  0  0  0  0  0  0
   -7.7357   14.1909   -1.9571 H   0  0  0  0  0  0  0  0  0  0  0  0
   -6.0262   14.7426   -1.9571 H   0  0  0  0  0  0  0  0  0  0  0  0
   -6.3699   14.6132   -4.4436 H   0  0  0  0  0  0  0  0  0  0  0  0
   -8.1375   14.3020   -4.1837 H   0  0  0  0  0  0  0  0  0  0  0  0
   -6.9041   16.6341   -5.7234 H   0  0  0  0  0  0  0  0  0  0  0  0
   -7.7875   15.1991   -6.4066 H   0  0  0  0  0  0  0  0  0  0  0  0
   -9.1570   18.4655   -6.3244 H   0  0  0  0  0  0  0  0  0  0  0  0
   -8.4038   17.1089   -7.3305 H   0  0  0  0  0  0  0  0  0  0  0  0
  -11.3511   17.3978   -6.6871 H   0  0  0  0  0  0  0  0  0  0  0  0
  -10.5291   17.8431   -8.2471 H   0  0  0  0  0  0  0  0  0  0  0  0
  -12.6846   17.3799   -8.4886 H   0  0  0  0  0  0  0  0  0  0  0  0
  -11.6439   11.9552  -10.0549 H   0  0  0  0  0  0  0  0  0  0  0  0
  -13.9565   11.7487  -10.2512 H   0  0  0  0  0  0  0  0  0  0  0  0
  -13.8674   11.5315  -12.0448 H   0  0  0  0  0  0  0  0  0  0  0  0
  -12.8458    9.5905   -9.9199 H   0  0  0  0  0  0  0  0  0  0  0  0
  -14.2973    9.3866  -10.9764 H   0  0  0  0  0  0  0  0  0  0  0  0
  -10.8002    9.4625  -10.7588 H   0  0  0  0  0  0  0  0  0  0  0  0
  -10.5274    9.1338  -12.5059 H   0  0  0  0  0  0  0  0  0  0  0  0
  -10.0361   11.5012  -11.9096 H   0  0  0  0  0  0  0  0  0  0  0  0
  -11.4082   11.3512  -13.0822 H   0  0  0  0  0  0  0  0  0  0  0  0
  -10.5702   13.9265   -9.5518 H   0  0  0  0  0  0  0  0  0  0  0  0
  -13.4858   15.7484  -12.6798 H   0  0  0  0  0  0  0  0  0  0  0  0
  -14.1720   13.3340  -12.6830 H   0  0  0  0  0  0  0  0  0  0  0  0
  -13.6216   15.5722  -17.1421 H   0  0  0  0  0  0  0  0  0  0  0  0
  -15.6710   14.5045  -17.9463 H   0  0  0  0  0  0  0  0  0  0  0  0
  -17.8776   11.6913  -14.9836 H   0  0  0  0  0  0  0  0  0  0  0  0
  -18.7107   13.1995  -14.7100 H   0  0  0  0  0  0  0  0  0  0  0  0
  -15.8755   17.7586  -11.3681 H   0  0  0  0  0  0  0  0  0  0  0  0
  -14.3590   17.9320   -9.6730 H   0  0  0  0  0  0  0  0  0  0  0  0
   -8.1316   18.1781   -4.3546 H   0  0  0  0  0  0  0  0  0  0  0  0
   -9.9041   17.8900   -4.0941 H   0  0  0  0  0  0  0  0  0  0  0  0
   -8.5671   17.2471   -2.1000 H   0  0  0  0  0  0  0  0  0  0  0  0
   -9.4064   15.8329   -2.8482 H   0  0  0  0  0  0  0  0  0  0  0  0
  1  2  1  0
  2  3  1  0
  3  4  1  0
  4  5  1  0
  5  6  1  0
  6  7  1  0
  7  8  1  0
  8  9  1  0
  9 10  2  0
 10 11  1  0
 11 12  2  0
 12 13  1  0
 13 14  1  0
 14 15  1  0
 15 16  1  0
 16 17  1  0
 17 18  1  0
 18 19  1  0
 19 20  1  0
 13 21  2  0
 12 22  1  0
 22 23  1  0
 23 24  1  0
 24 25  2  0
 25 26  1  0
 25 27  1  0
 27 28  2  0
 28 29  1  0
 29 30  2  0
 30 31  1  0
 31 32  1  0
 32 33  1  0
 22 34  1  0
 34 35  2  0
 35 36  1  0
  5 37  1  0
 37 38  1  0
 38  2  1  0
 21  9  1  0
 30 24  1  0
 36 11  1  0
 20 15  1  0
 33 29  1  0
  1 39  1  0
  1 40  1  0
  1 41  1  0
  3 42  1  0
  3 43  1  0
  4 44  1  0
  4 45  1  0
  6 46  1  0
  6 47  1  0
  7 48  1  0
  7 49  1  0
 10 50  1  0
 15 51  1  0
 16 52  1  0
 16 53  1  0
 17 54  1  0
 17 55  1  0
 19 56  1  0
 19 57  1  0
 20 58  1  0
 20 59  1  0
 21 60  1  0
 22 61  1  0
 23 62  1  0
 27 63  1  0
 28 64  1  0
 32 65  1  0
 32 66  1  0
 35 67  1  0
 36 68  1  0
 37 69  1  0
 37 70  1  0
 38 71  1  0
 38 72  1  0
M  END
>  <meeko>  (8)
{"is_sidechain": false}

>  <source_group>  (8)
FYN canonical

>  <source_system>  (8)
FYN_saracatinib

>  <source_run>  (8)
vina_seed5519_ex64

>  <source_seed>  (8)
5519

>  <vina_pose_rank>  (8)
8

>  <vina_affinity_kcal_mol>  (8)
-8.6180000000000003

>  <vina_rmsd_to_crystal_angstrom>  (8)
2.5804

$$$$
FYN_saracatinib__vina_seed5519_ex64__pose09
     RDKit          3D

 72 77  0  0  0  0  0  0  0  0999 V2000
   -6.6950    7.8300   -9.9270 C   0  0  0  0  0  0  0  0  0  0  0  0
   -6.8700    8.6520   -8.7420 N   0  0  0  0  0  0  0  0  0  0  0  0
   -6.0970    9.8750   -8.8620 C   0  0  0  0  0  0  0  0  0  0  0  0
   -6.3060   10.8020   -7.6550 C   0  0  0  0  0  0  0  0  0  0  0  0
   -7.7130   11.1320   -7.4450 N   0  0  0  0  0  0  0  0  0  0  0  0
   -7.8340   11.9550   -6.2470 C   0  0  0  0  0  0  0  0  0  0  0  0
   -8.8260   13.1280   -6.3230 C   0  0  0  0  0  0  0  0  0  0  0  0
  -10.1460   12.7010   -6.5550 O   0  0  0  0  0  0  0  0  0  0  0  0
  -10.7130   13.1220   -7.7340 C   0  0  0  0  0  0  0  0  0  0  0  0
  -11.2020   14.3560   -7.8990 C   0  0  0  0  0  0  0  0  0  0  0  0
  -11.7580   14.7400   -9.0570 C   0  0  0  0  0  0  0  0  0  0  0  0
  -11.8660   13.9090  -10.1310 C   0  0  0  0  0  0  0  0  0  0  0  0
  -11.3810   12.6450   -9.9840 C   0  0  0  0  0  0  0  0  0  0  0  0
  -11.4220   11.7250  -11.0150 O   0  0  0  0  0  0  0  0  0  0  0  0
  -10.8730   10.4340  -10.9090 C   0  0  0  0  0  0  0  0  0  0  0  0
  -11.9170    9.3190  -10.9770 C   0  0  0  0  0  0  0  0  0  0  0  0
  -11.2610    7.9650  -11.2230 C   0  0  0  0  0  0  0  0  0  0  0  0
  -10.4830    7.9910  -12.3950 O   0  0  0  0  0  0  0  0  0  0  0  0
   -9.3980    8.8650  -12.2400 C   0  0  0  0  0  0  0  0  0  0  0  0
   -9.9060   10.2960  -12.0970 C   0  0  0  0  0  0  0  0  0  0  0  0
  -10.8230   12.3070   -8.7990 C   0  0  0  0  0  0  0  0  0  0  0  0
  -12.4490   14.4310  -11.2490 C   0  0  0  0  0  0  0  0  0  0  0  0
  -12.7240   13.9640  -12.4100 N   0  0  0  0  0  0  0  0  0  0  0  0
  -13.7420   13.8790  -13.1820 C   0  0  0  0  0  0  0  0  0  0  0  0
  -14.6920   12.9280  -12.9530 C   0  0  0  0  0  0  0  0  0  0  0  0
  -14.6260   11.7830  -11.6440 Cl  0  0  0  0  0  0  0  0  0  0  0  0
  -15.7820   12.8220  -13.7390 C   0  0  0  0  0  0  0  0  0  0  0  0
  -15.9760   13.6380  -14.7840 C   0  0  0  0  0  0  0  0  0  0  0  0
  -15.0490   14.5700  -15.0230 C   0  0  0  0  0  0  0  0  0  0  0  0
  -13.9640   14.6840  -14.2460 C   0  0  0  0  0  0  0  0  0  0  0  0
  -13.2570   15.6060  -14.6560 O   0  0  0  0  0  0  0  0  0  0  0  0
  -13.8450   16.1400  -15.8410 C   0  0  0  0  0  0  0  0  0  0  0  0
  -15.0550   15.3980  -15.9320 O   0  0  0  0  0  0  0  0  0  0  0  0
  -12.8490   15.6430  -11.1960 N   0  0  0  0  0  0  0  0  0  0  0  0
  -12.7040   16.3290  -10.1470 C   0  0  0  0  0  0  0  0  0  0  0  0
  -12.1770   15.9360   -9.0740 N   0  0  0  0  0  0  0  0  0  0  0  0
   -8.4580    9.8890   -7.3180 C   0  0  0  0  0  0  0  0  0  0  0  0
   -8.2710    8.9790   -8.5480 C   0  0  0  0  0  0  0  0  0  0  0  0
   -6.4747    6.7951   -9.6261 H   0  0  0  0  0  0  0  0  0  0  0  0
   -7.6174    7.8492  -10.5261 H   0  0  0  0  0  0  0  0  0  0  0  0
   -5.8604    8.2233  -10.5261 H   0  0  0  0  0  0  0  0  0  0  0  0
   -5.0301    9.6166   -8.9321 H   0  0  0  0  0  0  0  0  0  0  0  0
   -6.4349   10.4062   -9.7640 H   0  0  0  0  0  0  0  0  0  0  0  0
   -5.9221   10.3012   -6.7540 H   0  0  0  0  0  0  0  0  0  0  0  0
   -5.7671   11.7400   -7.8546 H   0  0  0  0  0  0  0  0  0  0  0  0
   -8.1513   11.3007   -5.4216 H   0  0  0  0  0  0  0  0  0  0  0  0
   -6.8451   12.4160   -6.1069 H   0  0  0  0  0  0  0  0  0  0  0  0
   -8.7952   13.6787   -5.3713 H   0  0  0  0  0  0  0  0  0  0  0  0
   -8.5268   13.7655   -7.1680 H   0  0  0  0  0  0  0  0  0  0  0  0
  -11.1467   15.0720   -7.0657 H   0  0  0  0  0  0  0  0  0  0  0  0
  -10.3851   10.3256   -9.9291 H   0  0  0  0  0  0  0  0  0  0  0  0
  -12.4671    9.2837  -10.0251 H   0  0  0  0  0  0  0  0  0  0  0  0
  -12.6008    9.5320  -11.8119 H   0  0  0  0  0  0  0  0  0  0  0  0
  -10.6157    7.7164  -10.3675 H   0  0  0  0  0  0  0  0  0  0  0  0
  -12.0501    7.2078  -11.3410 H   0  0  0  0  0  0  0  0  0  0  0  0
   -8.8304    8.5870  -11.3397 H   0  0  0  0  0  0  0  0  0  0  0  0
   -8.7465    8.7967  -13.1237 H   0  0  0  0  0  0  0  0  0  0  0  0
   -9.0479   10.9660  -11.9393 H   0  0  0  0  0  0  0  0  0  0  0  0
  -10.4476   10.5637  -13.0162 H   0  0  0  0  0  0  0  0  0  0  0  0
  -10.4280   11.2853   -8.6981 H   0  0  0  0  0  0  0  0  0  0  0  0
  -11.4624   14.7541  -11.6126 H   0  0  0  0  0  0  0  0  0  0  0  0
  -11.8840   13.5230  -12.8690 H   0  0  0  0  0  0  0  0  0  0  0  0
  -16.5303   12.0469  -13.5172 H   0  0  0  0  0  0  0  0  0  0  0  0
  -16.8668   13.5439  -15.4224 H   0  0  0  0  0  0  0  0  0  0  0  0
  -14.0436   17.2170  -15.7381 H   0  0  0  0  0  0  0  0  0  0  0  0
  -13.2044   16.0540  -16.7311 H   0  0  0  0  0  0  0  0  0  0  0  0
  -13.0719   17.3653  -10.1728 H   0  0  0  0  0  0  0  0  0  0  0  0
  -12.0950   16.5270   -8.2900 H   0  0  0  0  0  0  0  0  0  0  0  0
   -8.1073    9.3540   -6.4231 H   0  0  0  0  0  0  0  0  0  0  0  0
   -9.5263   10.1384   -7.2375 H   0  0  0  0  0  0  0  0  0  0  0  0
   -8.8404    8.0498   -8.3985 H   0  0  0  0  0  0  0  0  0  0  0  0
   -8.6340    9.5128   -9.4387 H   0  0  0  0  0  0  0  0  0  0  0  0
  1  2  1  0
  2  3  1  0
  3  4  1  0
  4  5  1  0
  5  6  1  0
  6  7  1  0
  7  8  1  0
  8  9  1  0
  9 10  2  0
 10 11  1  0
 11 12  2  0
 12 13  1  0
 13 14  1  0
 14 15  1  0
 15 16  1  0
 16 17  1  0
 17 18  1  0
 18 19  1  0
 19 20  1  0
 13 21  2  0
 12 22  1  0
 22 23  1  0
 23 24  1  0
 24 25  2  0
 25 26  1  0
 25 27  1  0
 27 28  2  0
 28 29  1  0
 29 30  2  0
 30 31  1  0
 31 32  1  0
 32 33  1  0
 22 34  1  0
 34 35  2  0
 35 36  1  0
  5 37  1  0
 37 38  1  0
 38  2  1  0
 21  9  1  0
 30 24  1  0
 36 11  1  0
 20 15  1  0
 33 29  1  0
  1 39  1  0
  1 40  1  0
  1 41  1  0
  3 42  1  0
  3 43  1  0
  4 44  1  0
  4 45  1  0
  6 46  1  0
  6 47  1  0
  7 48  1  0
  7 49  1  0
 10 50  1  0
 15 51  1  0
 16 52  1  0
 16 53  1  0
 17 54  1  0
 17 55  1  0
 19 56  1  0
 19 57  1  0
 20 58  1  0
 20 59  1  0
 21 60  1  0
 22 61  1  0
 23 62  1  0
 27 63  1  0
 28 64  1  0
 32 65  1  0
 32 66  1  0
 35 67  1  0
 36 68  1  0
 37 69  1  0
 37 70  1  0
 38 71  1  0
 38 72  1  0
M  END
>  <meeko>  (9)
{"is_sidechain": false}

>  <source_group>  (9)
FYN canonical

>  <source_system>  (9)
FYN_saracatinib

>  <source_run>  (9)
vina_seed5519_ex64

>  <source_seed>  (9)
5519

>  <vina_pose_rank>  (9)
9

>  <vina_affinity_kcal_mol>  (9)
-8.5359999999999996

>  <vina_rmsd_to_crystal_angstrom>  (9)
4.5994000000000002

$$$$
