FYN_saracatinib__vina_seed5519_ex64__pose01


 40 45  0  0  0  0  0  0  0  0999 V2000
   -9.9940   15.8940   -7.4410 C   0  0  0  0  0  0  0  0  0  0  0  0
  -11.0940   16.6150   -7.6850 C   0  0  0  0  0  0  0  0  0  0  0  0
  -11.8680   16.3740   -8.7540 C   0  0  0  0  0  0  0  0  0  0  0  0
  -11.5940   15.3860   -9.6510 C   0  0  0  0  0  0  0  0  0  0  0  0
  -10.4820   14.6350   -9.4190 C   0  0  0  0  0  0  0  0  0  0  0  0
   -9.7300   14.9200   -8.3320 C   0  0  0  0  0  0  0  0  0  0  0  0
  -12.4620   15.2540  -10.6950 C   0  0  0  0  0  0  0  0  0  0  0  0
  -13.4570   16.0530  -10.7420 N   0  0  0  0  0  0  0  0  0  0  0  0
  -13.6230   16.9350   -9.8550 C   0  0  0  0  0  0  0  0  0  0  0  0
  -12.8760   17.1350   -8.8620 N   0  0  0  0  0  0  0  0  0  0  0  0
  -13.0650   17.8440   -8.2050 H   0  0  0  0  0  0  0  0  0  0  0  0
  -12.5330   14.4580  -11.6970 N   0  0  0  0  0  0  0  0  0  0  0  0
  -11.6240   13.9530  -11.8680 H   0  0  0  0  0  0  0  0  0  0  0  0
  -13.4060   14.0960  -12.5610 C   0  0  0  0  0  0  0  0  0  0  0  0
  -14.1420   12.9670  -12.3540 C   0  0  0  0  0  0  0  0  0  0  0  0
  -13.9830   11.9460  -10.9540 Cl  0  0  0  0  0  0  0  0  0  0  0  0
  -15.0780   12.5690  -13.2370 C   0  0  0  0  0  0  0  0  0  0  0  0
  -15.3210   13.2560  -14.3620 C   0  0  0  0  0  0  0  0  0  0  0  0
  -14.6030   14.3610  -14.5790 C   0  0  0  0  0  0  0  0  0  0  0  0
  -13.6720   14.7660  -13.7060 C   0  0  0  0  0  0  0  0  0  0  0  0
  -13.1430   15.8010  -14.1150 O   0  0  0  0  0  0  0  0  0  0  0  0
  -13.6870   16.1160  -15.3960 C   0  0  0  0  0  0  0  0  0  0  0  0
  -14.6830   15.1110  -15.5500 O   0  0  0  0  0  0  0  0  0  0  0  0
   -9.1900   16.1150   -6.3500 O   0  0  0  0  0  0  0  0  0  0  0  0
   -7.8360   15.7630   -6.5050 C   0  0  0  0  0  0  0  0  0  0  0  0
   -7.3640   14.7620   -5.4360 C   0  0  0  0  0  0  0  0  0  0  0  0
   -9.1570   13.7740   -0.1760 C   0  0  0  0  0  0  0  0  0  0  0  0
   -8.4370   13.8000   -1.4370 N   0  0  0  0  0  0  0  0  0  0  0  0
   -9.3070   13.3810   -2.5210 C   0  0  0  0  0  0  0  0  0  0  0  0
   -8.5990   13.4560   -3.8820 C   0  0  0  0  0  0  0  0  0  0  0  0
   -8.0780   14.7900   -4.1640 N   0  0  0  0  0  0  0  0  0  0  0  0
   -7.2020   15.1770   -3.0680 C   0  0  0  0  0  0  0  0  0  0  0  0
   -7.9290   15.1330   -1.7100 C   0  0  0  0  0  0  0  0  0  0  0  0
  -10.0990   13.6190  -10.2750 O   0  0  0  0  0  0  0  0  0  0  0  0
  -10.0100   12.2730   -9.8720 C   0  0  0  0  0  0  0  0  0  0  0  0
  -11.0950   11.8610   -8.8770 C   0  0  0  0  0  0  0  0  0  0  0  0
  -11.1830   10.3440   -8.7550 C   0  0  0  0  0  0  0  0  0  0  0  0
  -11.4080    9.7520  -10.0120 O   0  0  0  0  0  0  0  0  0  0  0  0
  -10.3040    9.9580  -10.8520 C   0  0  0  0  0  0  0  0  0  0  0  0
  -10.1610   11.4450  -11.1590 C   0  0  0  0  0  0  0  0  0  0  0  0
 27 28  1  0
 28 29  1  0
 29 30  1  0
 30 31  1  0
 31 26  1  0
 26 25  1  0
 25 24  1  0
 24  1  1  0
  1  2  2  0
  2  3  1  0
  3  4  2  0
  4  5  1  0
  5 34  1  0
 34 35  1  0
 35 36  1  0
 36 37  1  0
 37 38  1  0
 38 39  1  0
 39 40  1  0
  5  6  2  0
  4  7  1  0
  7 12  1  0
 12 14  1  0
 14 15  2  0
 15 16  1  0
 15 17  1  0
 17 18  2  0
 18 19  1  0
 19 20  2  0
 20 21  1  0
 21 22  1  0
 22 23  1  0
  7  8  1  0
  8  9  2  0
  9 10  1  0
 31 32  1  0
 32 33  1  0
 33 28  1  0
  6  1  1  0
 20 14  1  0
 10  3  1  0
 40 35  1  0
 23 19  1  0
 12 13  1  0
 10 11  1  0
M  END
> <meeko>
{"is_sidechain": false}

> <source_group>
FYN canonical

> <source_system>
FYN_saracatinib

> <source_run>
vina_seed5519_ex64

> <source_seed>
5519

> <vina_pose_rank>
1

> <vina_affinity_kcal_mol>
-9.202

> <vina_rmsd_to_crystal_angstrom>
1.9413

> <minimizedAffinity>
-9.20188

> <CNNscore>
0.5909659266

> <CNNaffinity>
7.5746932030

> <CNN_VS>
4.4763855934

> <CNNaffinity_variance>
0.1401758939

$$$$
FYN_saracatinib__vina_seed5519_ex64__pose02


 40 45  0  0  0  0  0  0  0  0999 V2000
  -10.1630   15.9740   -7.4160 C   0  0  0  0  0  0  0  0  0  0  0  0
  -11.2720   16.6650   -7.7020 C   0  0  0  0  0  0  0  0  0  0  0  0
  -11.9830   16.4210   -8.8130 C   0  0  0  0  0  0  0  0  0  0  0  0
  -11.6320   15.4610   -9.7140 C   0  0  0  0  0  0  0  0  0  0  0  0
  -10.5090   14.7410   -9.4400 C   0  0  0  0  0  0  0  0  0  0  0  0
   -9.8220   15.0280   -8.3100 C   0  0  0  0  0  0  0  0  0  0  0  0
  -12.4420   15.3230  -10.8030 C   0  0  0  0  0  0  0  0  0  0  0  0
  -13.4580   16.0910  -10.8850 N   0  0  0  0  0  0  0  0  0  0  0  0
  -13.6970   16.9490   -9.9920 C   0  0  0  0  0  0  0  0  0  0  0  0
  -13.0080   17.1520   -8.9590 N   0  0  0  0  0  0  0  0  0  0  0  0
  -13.2530   17.8410   -8.2990 H   0  0  0  0  0  0  0  0  0  0  0  0
  -12.4360   14.5450  -11.8220 N   0  0  0  0  0  0  0  0  0  0  0  0
  -11.4780   14.4630  -12.2530 H   0  0  0  0  0  0  0  0  0  0  0  0
  -13.2750   13.8320  -12.4750 C   0  0  0  0  0  0  0  0  0  0  0  0
  -13.7040   14.2390  -13.7030 C   0  0  0  0  0  0  0  0  0  0  0  0
  -13.1780   15.7050  -14.4810 Cl  0  0  0  0  0  0  0  0  0  0  0  0
  -14.5750   13.5030  -14.4210 C   0  0  0  0  0  0  0  0  0  0  0  0
  -15.0660   12.3450  -13.9570 C   0  0  0  0  0  0  0  0  0  0  0  0
  -14.6580   11.9380  -12.7520 C   0  0  0  0  0  0  0  0  0  0  0  0
  -13.7910   12.6620  -12.0330 C   0  0  0  0  0  0  0  0  0  0  0  0
  -13.5630   12.0920  -10.9640 O   0  0  0  0  0  0  0  0  0  0  0  0
  -14.3720   10.9190  -10.8910 C   0  0  0  0  0  0  0  0  0  0  0  0
  -15.0010   10.9120  -12.1670 O   0  0  0  0  0  0  0  0  0  0  0  0
   -9.4220   16.1980   -6.2810 O   0  0  0  0  0  0  0  0  0  0  0  0
   -8.0260   16.2280   -6.4570 C   0  0  0  0  0  0  0  0  0  0  0  0
   -7.2710   15.6290   -5.2580 C   0  0  0  0  0  0  0  0  0  0  0  0
   -9.1530   13.7020   -0.2980 C   0  0  0  0  0  0  0  0  0  0  0  0
   -8.3660   14.0370   -1.4720 N   0  0  0  0  0  0  0  0  0  0  0  0
   -9.0020   13.5130   -2.6680 C   0  0  0  0  0  0  0  0  0  0  0  0
   -8.2320   13.9020   -3.9390 C   0  0  0  0  0  0  0  0  0  0  0  0
   -8.0660   15.3460   -4.0680 N   0  0  0  0  0  0  0  0  0  0  0  0
   -7.4180   15.8390   -2.8620 C   0  0  0  0  0  0  0  0  0  0  0  0
   -8.2130   15.4760   -1.5940 C   0  0  0  0  0  0  0  0  0  0  0  0
  -10.0500   13.7550  -10.2940 O   0  0  0  0  0  0  0  0  0  0  0  0
   -9.9020   12.4120   -9.9020 C   0  0  0  0  0  0  0  0  0  0  0  0
  -10.9420   11.9580   -8.8760 C   0  0  0  0  0  0  0  0  0  0  0  0
  -10.9730   10.4380   -8.7590 C   0  0  0  0  0  0  0  0  0  0  0  0
  -11.2150    9.8440  -10.0110 O   0  0  0  0  0  0  0  0  0  0  0  0
  -10.1460   10.0920  -10.8840 C   0  0  0  0  0  0  0  0  0  0  0  0
  -10.0640   11.5840  -11.1870 C   0  0  0  0  0  0  0  0  0  0  0  0
 27 28  1  0
 28 29  1  0
 29 30  1  0
 30 31  1  0
 31 26  1  0
 26 25  1  0
 25 24  1  0
 24  1  1  0
  1  2  2  0
  2  3  1  0
  3  4  2  0
  4  5  1  0
  5 34  1  0
 34 35  1  0
 35 36  1  0
 36 37  1  0
 37 38  1  0
 38 39  1  0
 39 40  1  0
  5  6  2  0
  4  7  1  0
  7 12  1  0
 12 14  1  0
 14 15  2  0
 15 16  1  0
 15 17  1  0
 17 18  2  0
 18 19  1  0
 19 20  2  0
 20 21  1  0
 21 22  1  0
 22 23  1  0
  7  8  1  0
  8  9  2  0
  9 10  1  0
 31 32  1  0
 32 33  1  0
 33 28  1  0
  6  1  1  0
 20 14  1  0
 10  3  1  0
 40 35  1  0
 23 19  1  0
 12 13  1  0
 10 11  1  0
M  END
> <meeko>
{"is_sidechain": false}

> <source_group>
FYN canonical

> <source_system>
FYN_saracatinib

> <source_run>
vina_seed5519_ex64

> <source_seed>
5519

> <vina_pose_rank>
2

> <vina_affinity_kcal_mol>
-9.032

> <vina_rmsd_to_crystal_angstrom>
2.6549999999999998

> <minimizedAffinity>
-8.97384

> <CNNscore>
0.7866172791

> <CNNaffinity>
7.7600560188

> <CNN_VS>
6.1041941643

> <CNNaffinity_variance>
0.1164903119

$$$$
FYN_saracatinib__vina_seed5519_ex64__pose03


 40 45  0  0  0  0  0  0  0  0999 V2000
  -11.6960   15.9210   -9.0240 C   0  0  0  0  0  0  0  0  0  0  0  0
  -12.7820   16.6670   -9.2560 C   0  0  0  0  0  0  0  0  0  0  0  0
  -13.6110   16.4000  -10.2760 C   0  0  0  0  0  0  0  0  0  0  0  0
  -13.4100   15.3590  -11.1320 C   0  0  0  0  0  0  0  0  0  0  0  0
  -12.3140   14.5820  -10.9110 C   0  0  0  0  0  0  0  0  0  0  0  0
  -11.5040   14.8950   -9.8740 C   0  0  0  0  0  0  0  0  0  0  0  0
  -14.3290   15.2050  -12.1290 C   0  0  0  0  0  0  0  0  0  0  0  0
  -15.2980   16.0350  -12.1730 N   0  0  0  0  0  0  0  0  0  0  0  0
  -15.3940   16.9660  -11.3270 C   0  0  0  0  0  0  0  0  0  0  0  0
  -14.5970   17.1890  -10.3790 N   0  0  0  0  0  0  0  0  0  0  0  0
  -14.7320   17.9360   -9.7520 H   0  0  0  0  0  0  0  0  0  0  0  0
  -14.4720   14.3630  -13.0850 N   0  0  0  0  0  0  0  0  0  0  0  0
  -14.2390   13.3800  -12.7850 H   0  0  0  0  0  0  0  0  0  0  0  0
  -14.8210   14.3770  -14.3160 C   0  0  0  0  0  0  0  0  0  0  0  0
  -14.0750   15.0630  -15.2280 C   0  0  0  0  0  0  0  0  0  0  0  0
  -12.6300   15.9500  -14.8320 Cl  0  0  0  0  0  0  0  0  0  0  0  0
  -14.4080   15.0840  -16.5330 C   0  0  0  0  0  0  0  0  0  0  0  0
  -15.4910   14.4420  -16.9930 C   0  0  0  0  0  0  0  0  0  0  0  0
  -16.2340   13.7710  -16.1090 C   0  0  0  0  0  0  0  0  0  0  0  0
  -15.9090   13.7430  -14.8100 C   0  0  0  0  0  0  0  0  0  0  0  0
  -16.7350   13.0670  -14.1920 O   0  0  0  0  0  0  0  0  0  0  0  0
  -17.7490   12.6420  -15.1010 C   0  0  0  0  0  0  0  0  0  0  0  0
  -17.2580   13.1310  -16.3430 O   0  0  0  0  0  0  0  0  0  0  0  0
  -10.8360   16.1680   -7.9820 O   0  0  0  0  0  0  0  0  0  0  0  0
   -9.7350   15.2970   -7.8760 C   0  0  0  0  0  0  0  0  0  0  0  0
   -9.9870   14.1500   -6.8840 C   0  0  0  0  0  0  0  0  0  0  0  0
   -9.1100    9.4310   -9.8550 C   0  0  0  0  0  0  0  0  0  0  0  0
   -9.4540   10.7690   -9.4040 N   0  0  0  0  0  0  0  0  0  0  0  0
  -10.4290   10.7010   -8.3300 C   0  0  0  0  0  0  0  0  0  0  0  0
  -10.7710   12.0940   -7.7830 C   0  0  0  0  0  0  0  0  0  0  0  0
   -9.5880   12.8170   -7.3230 N   0  0  0  0  0  0  0  0  0  0  0  0
   -8.6370   12.8770   -8.4230 C   0  0  0  0  0  0  0  0  0  0  0  0
   -8.2720   11.4740   -8.9440 C   0  0  0  0  0  0  0  0  0  0  0  0
  -12.0040   13.5110  -11.7290 O   0  0  0  0  0  0  0  0  0  0  0  0
  -12.0500   12.1750  -11.2900 C   0  0  0  0  0  0  0  0  0  0  0  0
  -13.4340   11.7400  -10.8060 C   0  0  0  0  0  0  0  0  0  0  0  0
  -13.5240   10.2220  -10.6900 C   0  0  0  0  0  0  0  0  0  0  0  0
  -13.2070    9.6060  -11.9150 O   0  0  0  0  0  0  0  0  0  0  0  0
  -11.8640    9.8390  -12.2450 C   0  0  0  0  0  0  0  0  0  0  0  0
  -11.6470   11.3250  -12.5070 C   0  0  0  0  0  0  0  0  0  0  0  0
 27 28  1  0
 28 29  1  0
 29 30  1  0
 30 31  1  0
 31 26  1  0
 26 25  1  0
 25 24  1  0
 24  1  1  0
  1  2  2  0
  2  3  1  0
  3  4  2  0
  4  5  1  0
  5 34  1  0
 34 35  1  0
 35 36  1  0
 36 37  1  0
 37 38  1  0
 38 39  1  0
 39 40  1  0
  5  6  2  0
  4  7  1  0
  7 12  1  0
 12 14  1  0
 14 15  2  0
 15 16  1  0
 15 17  1  0
 17 18  2  0
 18 19  1  0
 19 20  2  0
 20 21  1  0
 21 22  1  0
 22 23  1  0
  7  8  1  0
  8  9  2  0
  9 10  1  0
 31 32  1  0
 32 33  1  0
 33 28  1  0
  6  1  1  0
 20 14  1  0
 10  3  1  0
 40 35  1  0
 23 19  1  0
 12 13  1  0
 10 11  1  0
M  END
> <meeko>
{"is_sidechain": false}

> <source_group>
FYN canonical

> <source_system>
FYN_saracatinib

> <source_run>
vina_seed5519_ex64

> <source_seed>
5519

> <vina_pose_rank>
3

> <vina_affinity_kcal_mol>
-9.0050000000000008

> <vina_rmsd_to_crystal_angstrom>
4.5167999999999999

> <minimizedAffinity>
-8.71704

> <CNNscore>
0.7934271097

> <CNNaffinity>
7.8856620789

> <CNN_VS>
6.2566981316

> <CNNaffinity_variance>
0.2828644812

$$$$
FYN_saracatinib__vina_seed5519_ex64__pose04


 40 45  0  0  0  0  0  0  0  0999 V2000
  -10.7310   13.1210   -7.6500 C   0  0  0  0  0  0  0  0  0  0  0  0
  -11.2160   14.3560   -7.8220 C   0  0  0  0  0  0  0  0  0  0  0  0
  -11.7560   14.7420   -8.9870 C   0  0  0  0  0  0  0  0  0  0  0  0
  -11.8510   13.9110  -10.0630 C   0  0  0  0  0  0  0  0  0  0  0  0
  -11.3690   12.6470   -9.9100 C   0  0  0  0  0  0  0  0  0  0  0  0
  -10.8280   12.3060   -8.7180 C   0  0  0  0  0  0  0  0  0  0  0  0
  -12.4180   14.4350  -11.1880 C   0  0  0  0  0  0  0  0  0  0  0  0
  -12.8170   15.6460  -11.1400 N   0  0  0  0  0  0  0  0  0  0  0  0
  -12.6850   16.3320  -10.0890 C   0  0  0  0  0  0  0  0  0  0  0  0
  -12.1730   15.9380   -9.0090 N   0  0  0  0  0  0  0  0  0  0  0  0
  -12.1010   16.5280   -8.2230 H   0  0  0  0  0  0  0  0  0  0  0  0
  -12.6780   13.9680  -12.3530 N   0  0  0  0  0  0  0  0  0  0  0  0
  -11.8350   13.5170  -12.7960 H   0  0  0  0  0  0  0  0  0  0  0  0
  -13.6830   13.8930  -13.1430 C   0  0  0  0  0  0  0  0  0  0  0  0
  -14.6340   12.9360  -12.9450 C   0  0  0  0  0  0  0  0  0  0  0  0
  -14.5860   11.7690  -11.6540 Cl  0  0  0  0  0  0  0  0  0  0  0  0
  -15.7100   12.8410  -13.7500 C   0  0  0  0  0  0  0  0  0  0  0  0
  -15.8900   13.6740  -14.7850 C   0  0  0  0  0  0  0  0  0  0  0  0
  -14.9620   14.6120  -14.9920 C   0  0  0  0  0  0  0  0  0  0  0  0
  -13.8910   14.7160  -14.1960 C   0  0  0  0  0  0  0  0  0  0  0  0
  -13.1790   15.6470  -14.5790 O   0  0  0  0  0  0  0  0  0  0  0  0
  -13.7500   16.1990  -15.7650 C   0  0  0  0  0  0  0  0  0  0  0  0
  -14.9560   15.4550  -15.8880 O   0  0  0  0  0  0  0  0  0  0  0  0
  -10.1810   12.6980   -6.4650 O   0  0  0  0  0  0  0  0  0  0  0  0
   -8.8490   12.2500   -6.5320 C   0  0  0  0  0  0  0  0  0  0  0  0
   -7.8630   13.2350   -5.8820 C   0  0  0  0  0  0  0  0  0  0  0  0
   -8.4070   18.6640   -4.4350 C   0  0  0  0  0  0  0  0  0  0  0  0
   -7.9210   17.3310   -4.7470 N   0  0  0  0  0  0  0  0  0  0  0  0
   -8.5560   16.3510   -3.8840 C   0  0  0  0  0  0  0  0  0  0  0  0
   -8.1150   14.9200   -4.2250 C   0  0  0  0  0  0  0  0  0  0  0  0
   -8.3700   14.5780   -5.6210 N   0  0  0  0  0  0  0  0  0  0  0  0
   -7.7120   15.5700   -6.4590 C   0  0  0  0  0  0  0  0  0  0  0  0
   -8.1860   17.0000   -6.1350 C   0  0  0  0  0  0  0  0  0  0  0  0
  -11.3970   11.7270  -10.9420 O   0  0  0  0  0  0  0  0  0  0  0  0
  -10.8350   10.4410  -10.8350 C   0  0  0  0  0  0  0  0  0  0  0  0
  -11.8770    9.3220  -10.7980 C   0  0  0  0  0  0  0  0  0  0  0  0
  -11.2320    7.9630  -11.0480 C   0  0  0  0  0  0  0  0  0  0  0  0
  -10.5360    7.9560  -12.2700 O   0  0  0  0  0  0  0  0  0  0  0  0
   -9.4480    8.8380  -12.2170 C   0  0  0  0  0  0  0  0  0  0  0  0
   -9.9520   10.2710  -12.0820 C   0  0  0  0  0  0  0  0  0  0  0  0
 27 28  1  0
 28 29  1  0
 29 30  1  0
 30 31  1  0
 31 26  1  0
 26 25  1  0
 25 24  1  0
 24  1  1  0
  1  2  2  0
  2  3  1  0
  3  4  2  0
  4  5  1  0
  5 34  1  0
 34 35  1  0
 35 36  1  0
 36 37  1  0
 37 38  1  0
 38 39  1  0
 39 40  1  0
  5  6  2  0
  4  7  1  0
  7 12  1  0
 12 14  1  0
 14 15  2  0
 15 16  1  0
 15 17  1  0
 17 18  2  0
 18 19  1  0
 19 20  2  0
 20 21  1  0
 21 22  1  0
 22 23  1  0
  7  8  1  0
  8  9  2  0
  9 10  1  0
 31 32  1  0
 32 33  1  0
 33 28  1  0
  6  1  1  0
 20 14  1  0
 10  3  1  0
 40 35  1  0
 23 19  1  0
 12 13  1  0
 10 11  1  0
M  END
> <meeko>
{"is_sidechain": false}

> <source_group>
FYN canonical

> <source_system>
FYN_saracatinib

> <source_run>
vina_seed5519_ex64

> <source_seed>
5519

> <vina_pose_rank>
4

> <vina_affinity_kcal_mol>
-8.9199999999999999

> <vina_rmsd_to_crystal_angstrom>
2.7648999999999999

> <minimizedAffinity>
-8.83655

> <CNNscore>
0.2931645215

> <CNNaffinity>
7.2539801598

> <CNN_VS>
2.1266095638

> <CNNaffinity_variance>
0.1915970296

$$$$
FYN_saracatinib__vina_seed5519_ex64__pose05


 40 45  0  0  0  0  0  0  0  0999 V2000
  -10.3100   15.6820   -7.7310 C   0  0  0  0  0  0  0  0  0  0  0  0
  -11.3860   16.4360   -7.9860 C   0  0  0  0  0  0  0  0  0  0  0  0
  -12.1280   16.2490   -9.0880 C   0  0  0  0  0  0  0  0  0  0  0  0
  -11.8450   15.2860  -10.0090 C   0  0  0  0  0  0  0  0  0  0  0  0
  -10.7580   14.5020   -9.7670 C   0  0  0  0  0  0  0  0  0  0  0  0
  -10.0370   14.7340   -8.6460 C   0  0  0  0  0  0  0  0  0  0  0  0
  -12.6800   15.2090  -11.0850 C   0  0  0  0  0  0  0  0  0  0  0  0
  -13.6550   16.0310  -11.1370 N   0  0  0  0  0  0  0  0  0  0  0  0
  -13.8320   16.8860  -10.2260 C   0  0  0  0  0  0  0  0  0  0  0  0
  -13.1150   17.0350   -9.2030 N   0  0  0  0  0  0  0  0  0  0  0  0
  -13.3110   17.7250   -8.5280 H   0  0  0  0  0  0  0  0  0  0  0  0
  -12.7340   14.4490  -12.1170 N   0  0  0  0  0  0  0  0  0  0  0  0
  -11.8170   13.9630  -12.3000 H   0  0  0  0  0  0  0  0  0  0  0  0
  -13.5970   14.1090  -13.0000 C   0  0  0  0  0  0  0  0  0  0  0  0
  -14.3650   13.0000  -12.8080 C   0  0  0  0  0  0  0  0  0  0  0  0
  -14.2630   11.9760  -11.4030 Cl  0  0  0  0  0  0  0  0  0  0  0  0
  -15.2910   12.6240  -13.7120 C   0  0  0  0  0  0  0  0  0  0  0  0
  -15.4910   13.3150  -14.8420 C   0  0  0  0  0  0  0  0  0  0  0  0
  -14.7400   14.4010  -15.0440 C   0  0  0  0  0  0  0  0  0  0  0  0
  -13.8190   14.7840  -14.1510 C   0  0  0  0  0  0  0  0  0  0  0  0
  -13.2550   15.8050  -14.5490 O   0  0  0  0  0  0  0  0  0  0  0  0
  -13.7630   16.1310  -15.8420 C   0  0  0  0  0  0  0  0  0  0  0  0
  -14.7800   15.1520  -16.0180 O   0  0  0  0  0  0  0  0  0  0  0  0
   -9.5390   15.8480   -6.6070 O   0  0  0  0  0  0  0  0  0  0  0  0
   -8.3750   15.0590   -6.5410 C   0  0  0  0  0  0  0  0  0  0  0  0
   -8.3940   14.0830   -5.3530 C   0  0  0  0  0  0  0  0  0  0  0  0
   -7.2800    9.1830   -7.9240 C   0  0  0  0  0  0  0  0  0  0  0  0
   -7.5640   10.5700   -7.5970 N   0  0  0  0  0  0  0  0  0  0  0  0
   -8.8240   10.6680   -6.8810 C   0  0  0  0  0  0  0  0  0  0  0  0
   -9.1290   12.1130   -6.4610 C   0  0  0  0  0  0  0  0  0  0  0  0
   -8.0610   12.6940   -5.6520 N   0  0  0  0  0  0  0  0  0  0  0  0
   -6.8170   12.5910   -6.4000 C   0  0  0  0  0  0  0  0  0  0  0  0
   -6.5000   11.1340   -6.7870 C   0  0  0  0  0  0  0  0  0  0  0  0
  -10.3680   13.5080  -10.6450 O   0  0  0  0  0  0  0  0  0  0  0  0
  -10.3200   12.1480  -10.2870 C   0  0  0  0  0  0  0  0  0  0  0  0
  -11.4610   11.7200   -9.3640 C   0  0  0  0  0  0  0  0  0  0  0  0
  -11.5770   10.2010   -9.3010 C   0  0  0  0  0  0  0  0  0  0  0  0
  -11.7450    9.6570  -10.5870 O   0  0  0  0  0  0  0  0  0  0  0  0
  -10.5970    9.8740  -11.3620 C   0  0  0  0  0  0  0  0  0  0  0  0
  -10.4150   11.3680  -11.6080 C   0  0  0  0  0  0  0  0  0  0  0  0
 27 28  1  0
 28 29  1  0
 29 30  1  0
 30 31  1  0
 31 26  1  0
 26 25  1  0
 25 24  1  0
 24  1  1  0
  1  2  2  0
  2  3  1  0
  3  4  2  0
  4  5  1  0
  5 34  1  0
 34 35  1  0
 35 36  1  0
 36 37  1  0
 37 38  1  0
 38 39  1  0
 39 40  1  0
  5  6  2  0
  4  7  1  0
  7 12  1  0
 12 14  1  0
 14 15  2  0
 15 16  1  0
 15 17  1  0
 17 18  2  0
 18 19  1  0
 19 20  2  0
 20 21  1  0
 21 22  1  0
 22 23  1  0
  7  8  1  0
  8  9  2  0
  9 10  1  0
 31 32  1  0
 32 33  1  0
 33 28  1  0
  6  1  1  0
 20 14  1  0
 10  3  1  0
 40 35  1  0
 23 19  1  0
 12 13  1  0
 10 11  1  0
M  END
> <meeko>
{"is_sidechain": false}

> <source_group>
FYN canonical

> <source_system>
FYN_saracatinib

> <source_run>
vina_seed5519_ex64

> <source_seed>
5519

> <vina_pose_rank>
5

> <vina_affinity_kcal_mol>
-8.9120000000000008

> <vina_rmsd_to_crystal_angstrom>
3.3441000000000001

> <minimizedAffinity>
-8.67253

> <CNNscore>
0.3839398623

> <CNNaffinity>
7.3435630798

> <CNN_VS>
2.8194866180

> <CNNaffinity_variance>
0.1966576576

$$$$
FYN_saracatinib__vina_seed5519_ex64__pose06


 40 45  0  0  0  0  0  0  0  0999 V2000
  -10.0540   15.8610   -7.4190 C   0  0  0  0  0  0  0  0  0  0  0  0
  -11.1410   16.5930   -7.6880 C   0  0  0  0  0  0  0  0  0  0  0  0
  -11.8840   16.3690   -8.7800 C   0  0  0  0  0  0  0  0  0  0  0  0
  -11.5920   15.3870   -9.6790 C   0  0  0  0  0  0  0  0  0  0  0  0
  -10.4930   14.6250   -9.4230 C   0  0  0  0  0  0  0  0  0  0  0  0
   -9.7710   14.8940   -8.3110 C   0  0  0  0  0  0  0  0  0  0  0  0
  -12.4310   15.2720  -10.7490 C   0  0  0  0  0  0  0  0  0  0  0  0
  -13.4170   16.0790  -10.8170 N   0  0  0  0  0  0  0  0  0  0  0  0
  -13.6020   16.9540   -9.9270 C   0  0  0  0  0  0  0  0  0  0  0  0
  -12.8830   17.1380   -8.9110 N   0  0  0  0  0  0  0  0  0  0  0  0
  -13.0850   17.8430   -8.2520 H   0  0  0  0  0  0  0  0  0  0  0  0
  -12.4790   14.4860  -11.7610 N   0  0  0  0  0  0  0  0  0  0  0  0
  -11.5500   14.0260  -11.9500 H   0  0  0  0  0  0  0  0  0  0  0  0
  -13.3460   14.0960  -12.6180 C   0  0  0  0  0  0  0  0  0  0  0  0
  -14.0710   12.9650  -12.3870 C   0  0  0  0  0  0  0  0  0  0  0  0
  -13.9040   11.9770  -10.9640 Cl  0  0  0  0  0  0  0  0  0  0  0  0
  -15.0010   12.5370  -13.2640 C   0  0  0  0  0  0  0  0  0  0  0  0
  -15.2470   13.1960  -14.4040 C   0  0  0  0  0  0  0  0  0  0  0  0
  -14.5400   14.3020  -14.6450 C   0  0  0  0  0  0  0  0  0  0  0  0
  -13.6150   14.7370  -13.7790 C   0  0  0  0  0  0  0  0  0  0  0  0
  -13.0960   15.7680  -14.2100 O   0  0  0  0  0  0  0  0  0  0  0  0
  -13.6400   16.0480  -15.4990 C   0  0  0  0  0  0  0  0  0  0  0  0
  -14.6250   15.0300  -15.6330 O   0  0  0  0  0  0  0  0  0  0  0  0
   -9.2800   16.0650   -6.3030 O   0  0  0  0  0  0  0  0  0  0  0  0
   -7.9300   16.3840   -6.5430 C   0  0  0  0  0  0  0  0  0  0  0  0
   -7.0990   16.4310   -5.2490 C   0  0  0  0  0  0  0  0  0  0  0  0
   -7.3700   21.9210   -3.9680 C   0  0  0  0  0  0  0  0  0  0  0  0
   -7.5730   20.5900   -4.5140 N   0  0  0  0  0  0  0  0  0  0  0  0
   -6.3590   20.1220   -5.1580 C   0  0  0  0  0  0  0  0  0  0  0  0
   -6.5130   18.6910   -5.6930 C   0  0  0  0  0  0  0  0  0  0  0  0
   -6.9070   17.7470   -4.6510 N   0  0  0  0  0  0  0  0  0  0  0  0
   -8.1300   18.2370   -4.0330 C   0  0  0  0  0  0  0  0  0  0  0  0
   -7.9580   19.6600   -3.4680 C   0  0  0  0  0  0  0  0  0  0  0  0
  -10.0930   13.6140  -10.2770 O   0  0  0  0  0  0  0  0  0  0  0  0
   -9.9920   12.2690   -9.8750 C   0  0  0  0  0  0  0  0  0  0  0  0
  -11.0730   11.8470   -8.8790 C   0  0  0  0  0  0  0  0  0  0  0  0
  -11.1470   10.3290   -8.7580 C   0  0  0  0  0  0  0  0  0  0  0  0
  -11.3680    9.7360  -10.0140 O   0  0  0  0  0  0  0  0  0  0  0  0
  -10.2670    9.9520  -10.8550 C   0  0  0  0  0  0  0  0  0  0  0  0
  -10.1370   11.4400  -11.1620 C   0  0  0  0  0  0  0  0  0  0  0  0
 27 28  1  0
 28 29  1  0
 29 30  1  0
 30 31  1  0
 31 26  1  0
 26 25  1  0
 25 24  1  0
 24  1  1  0
  1  2  2  0
  2  3  1  0
  3  4  2  0
  4  5  1  0
  5 34  1  0
 34 35  1  0
 35 36  1  0
 36 37  1  0
 37 38  1  0
 38 39  1  0
 39 40  1  0
  5  6  2  0
  4  7  1  0
  7 12  1  0
 12 14  1  0
 14 15  2  0
 15 16  1  0
 15 17  1  0
 17 18  2  0
 18 19  1  0
 19 20  2  0
 20 21  1  0
 21 22  1  0
 22 23  1  0
  7  8  1  0
  8  9  2  0
  9 10  1  0
 31 32  1  0
 32 33  1  0
 33 28  1  0
  6  1  1  0
 20 14  1  0
 10  3  1  0
 40 35  1  0
 23 19  1  0
 12 13  1  0
 10 11  1  0
M  END
> <meeko>
{"is_sidechain": false}

> <source_group>
FYN canonical

> <source_system>
FYN_saracatinib

> <source_run>
vina_seed5519_ex64

> <source_seed>
5519

> <vina_pose_rank>
6

> <vina_affinity_kcal_mol>
-8.8780000000000001

> <vina_rmsd_to_crystal_angstrom>
2.0194999999999999

> <minimizedAffinity>
-9.00309

> <CNNscore>
0.6123141646

> <CNNaffinity>
7.3768153191

> <CNN_VS>
4.5169286728

> <CNNaffinity_variance>
0.1680170298

$$$$
FYN_saracatinib__vina_seed5519_ex64__pose07


 40 45  0  0  0  0  0  0  0  0999 V2000
  -10.1240   16.0110   -7.4020 C   0  0  0  0  0  0  0  0  0  0  0  0
  -11.2330   16.7010   -7.6910 C   0  0  0  0  0  0  0  0  0  0  0  0
  -11.9460   16.4520   -8.7980 C   0  0  0  0  0  0  0  0  0  0  0  0
  -11.5990   15.4850   -9.6930 C   0  0  0  0  0  0  0  0  0  0  0  0
  -10.4770   14.7640   -9.4170 C   0  0  0  0  0  0  0  0  0  0  0  0
   -9.7870   15.0580   -8.2910 C   0  0  0  0  0  0  0  0  0  0  0  0
  -12.4120   15.3410  -10.7790 C   0  0  0  0  0  0  0  0  0  0  0  0
  -13.4270   16.1100  -10.8650 N   0  0  0  0  0  0  0  0  0  0  0  0
  -13.6630   16.9740   -9.9760 C   0  0  0  0  0  0  0  0  0  0  0  0
  -12.9710   17.1830   -8.9460 N   0  0  0  0  0  0  0  0  0  0  0  0
  -13.2130   17.8770   -8.2900 H   0  0  0  0  0  0  0  0  0  0  0  0
  -12.4100   14.5570  -11.7940 N   0  0  0  0  0  0  0  0  0  0  0  0
  -11.4530   14.4680  -12.2250 H   0  0  0  0  0  0  0  0  0  0  0  0
  -13.2520   13.8410  -12.4410 C   0  0  0  0  0  0  0  0  0  0  0  0
  -13.7040   14.2570  -13.6580 C   0  0  0  0  0  0  0  0  0  0  0  0
  -13.2040   15.7360  -14.4280 Cl  0  0  0  0  0  0  0  0  0  0  0  0
  -14.5790   13.5190  -14.3700 C   0  0  0  0  0  0  0  0  0  0  0  0
  -15.0510   12.3520  -13.9110 C   0  0  0  0  0  0  0  0  0  0  0  0
  -14.6210   11.9370  -12.7170 C   0  0  0  0  0  0  0  0  0  0  0  0
  -13.7490   12.6620  -12.0030 C   0  0  0  0  0  0  0  0  0  0  0  0
  -13.4990   12.0840  -10.9440 O   0  0  0  0  0  0  0  0  0  0  0  0
  -14.2960   10.9020  -10.8700 C   0  0  0  0  0  0  0  0  0  0  0  0
  -14.9440   10.9020  -12.1370 O   0  0  0  0  0  0  0  0  0  0  0  0
   -9.3810   16.2410   -6.2710 O   0  0  0  0  0  0  0  0  0  0  0  0
   -7.9900   16.3450   -6.4620 C   0  0  0  0  0  0  0  0  0  0  0  0
   -7.2180   16.4150   -5.1330 C   0  0  0  0  0  0  0  0  0  0  0  0
   -7.4200   21.9300   -3.9490 C   0  0  0  0  0  0  0  0  0  0  0  0
   -7.6710   20.5820   -4.4290 N   0  0  0  0  0  0  0  0  0  0  0  0
   -6.5550   20.1200   -5.2350 C   0  0  0  0  0  0  0  0  0  0  0  0
   -6.7540   18.6740   -5.7090 C   0  0  0  0  0  0  0  0  0  0  0  0
   -6.9700   17.7500   -4.5990 N   0  0  0  0  0  0  0  0  0  0  0  0
   -8.1000   18.2330   -3.8190 C   0  0  0  0  0  0  0  0  0  0  0  0
   -7.8780   19.6720   -3.3170 C   0  0  0  0  0  0  0  0  0  0  0  0
  -10.0220   13.7720  -10.2660 O   0  0  0  0  0  0  0  0  0  0  0  0
   -9.4530   12.5720   -9.8020 C   0  0  0  0  0  0  0  0  0  0  0  0
  -10.4890   11.5330   -9.3710 C   0  0  0  0  0  0  0  0  0  0  0  0
   -9.8580   10.1520   -9.2290 C   0  0  0  0  0  0  0  0  0  0  0  0
   -9.2290    9.7630  -10.4260 O   0  0  0  0  0  0  0  0  0  0  0  0
   -8.1400   10.6030  -10.7000 C   0  0  0  0  0  0  0  0  0  0  0  0
   -8.6380   12.0160  -10.9820 C   0  0  0  0  0  0  0  0  0  0  0  0
 27 28  1  0
 28 29  1  0
 29 30  1  0
 30 31  1  0
 31 26  1  0
 26 25  1  0
 25 24  1  0
 24  1  1  0
  1  2  2  0
  2  3  1  0
  3  4  2  0
  4  5  1  0
  5 34  1  0
 34 35  1  0
 35 36  1  0
 36 37  1  0
 37 38  1  0
 38 39  1  0
 39 40  1  0
  5  6  2  0
  4  7  1  0
  7 12  1  0
 12 14  1  0
 14 15  2  0
 15 16  1  0
 15 17  1  0
 17 18  2  0
 18 19  1  0
 19 20  2  0
 20 21  1  0
 21 22  1  0
 22 23  1  0
  7  8  1  0
  8  9  2  0
  9 10  1  0
 31 32  1  0
 32 33  1  0
 33 28  1  0
  6  1  1  0
 20 14  1  0
 10  3  1  0
 40 35  1  0
 23 19  1  0
 12 13  1  0
 10 11  1  0
M  END
> <meeko>
{"is_sidechain": false}

> <source_group>
FYN canonical

> <source_system>
FYN_saracatinib

> <source_run>
vina_seed5519_ex64

> <source_seed>
5519

> <vina_pose_rank>
7

> <vina_affinity_kcal_mol>
-8.6679999999999993

> <vina_rmsd_to_crystal_angstrom>
2.7917000000000001

> <minimizedAffinity>
-8.70568

> <CNNscore>
0.8574316502

> <CNNaffinity>
7.8102416992

> <CNN_VS>
6.6967482567

> <CNNaffinity_variance>
0.1462107152

$$$$
FYN_saracatinib__vina_seed5519_ex64__pose08


 40 45  0  0  0  0  0  0  0  0999 V2000
  -11.5130   15.6750   -8.8880 C   0  0  0  0  0  0  0  0  0  0  0  0
  -12.5290   16.5080   -9.1410 C   0  0  0  0  0  0  0  0  0  0  0  0
  -13.3620   16.3040  -10.1720 C   0  0  0  0  0  0  0  0  0  0  0  0
  -13.2370   15.2450  -11.0200 C   0  0  0  0  0  0  0  0  0  0  0  0
  -12.2140   14.3800  -10.7780 C   0  0  0  0  0  0  0  0  0  0  0  0
  -11.3960   14.6310   -9.7300 C   0  0  0  0  0  0  0  0  0  0  0  0
  -14.1510   15.1620  -12.0290 C   0  0  0  0  0  0  0  0  0  0  0  0
  -15.0460   16.0700  -12.0920 N   0  0  0  0  0  0  0  0  0  0  0  0
  -15.0770   17.0110  -11.2520 C   0  0  0  0  0  0  0  0  0  0  0  0
  -14.2780   17.1720  -10.2940 N   0  0  0  0  0  0  0  0  0  0  0  0
  -14.3590   17.9320   -9.6730 H   0  0  0  0  0  0  0  0  0  0  0  0
  -14.3500   14.3290  -12.9830 N   0  0  0  0  0  0  0  0  0  0  0  0
  -14.1720   13.3340  -12.6830 H   0  0  0  0  0  0  0  0  0  0  0  0
  -14.7080   14.3610  -14.2110 C   0  0  0  0  0  0  0  0  0  0  0  0
  -13.9350   15.0090  -15.1290 C   0  0  0  0  0  0  0  0  0  0  0  0
  -12.4430   15.8200  -14.7440 Cl  0  0  0  0  0  0  0  0  0  0  0  0
  -14.2770   15.0480  -16.4310 C   0  0  0  0  0  0  0  0  0  0  0  0
  -15.3960   14.4640  -16.8820 C   0  0  0  0  0  0  0  0  0  0  0  0
  -16.1650   13.8310  -15.9920 C   0  0  0  0  0  0  0  0  0  0  0  0
  -15.8320   13.7850  -14.6960 C   0  0  0  0  0  0  0  0  0  0  0  0
  -16.6860   13.1520  -14.0720 O   0  0  0  0  0  0  0  0  0  0  0  0
  -17.7280   12.7810  -14.9730 C   0  0  0  0  0  0  0  0  0  0  0  0
  -17.2230   13.2450  -16.2190 O   0  0  0  0  0  0  0  0  0  0  0  0
  -10.6510   15.8550   -7.8350 O   0  0  0  0  0  0  0  0  0  0  0  0
  -10.5180   17.1780   -7.3710 C   0  0  0  0  0  0  0  0  0  0  0  0
   -9.1930   17.4080   -6.6250 C   0  0  0  0  0  0  0  0  0  0  0  0
   -7.0760   15.0710   -1.9440 C   0  0  0  0  0  0  0  0  0  0  0  0
   -7.3410   15.8920   -3.1120 N   0  0  0  0  0  0  0  0  0  0  0  0
   -7.3610   15.0710   -4.3090 C   0  0  0  0  0  0  0  0  0  0  0  0
   -7.7020   15.8950   -5.5590 C   0  0  0  0  0  0  0  0  0  0  0  0
   -8.9740   16.5990   -5.4310 N   0  0  0  0  0  0  0  0  0  0  0  0
   -8.9190   17.4200   -4.2310 C   0  0  0  0  0  0  0  0  0  0  0  0
   -8.6110   16.5820   -2.9750 C   0  0  0  0  0  0  0  0  0  0  0  0
  -11.9830   13.2820  -11.5860 O   0  0  0  0  0  0  0  0  0  0  0  0
  -11.9870   11.9610  -11.1000 C   0  0  0  0  0  0  0  0  0  0  0  0
  -13.3760   11.3230  -11.0830 C   0  0  0  0  0  0  0  0  0  0  0  0
  -13.2850    9.8110  -10.9040 C   0  0  0  0  0  0  0  0  0  0  0  0
  -12.4830    9.2350  -11.9060 O   0  0  0  0  0  0  0  0  0  0  0  0
  -11.1560    9.6690  -11.7790 C   0  0  0  0  0  0  0  0  0  0  0  0
  -11.0750   11.1680  -12.0500 C   0  0  0  0  0  0  0  0  0  0  0  0
 27 28  1  0
 28 29  1  0
 29 30  1  0
 30 31  1  0
 31 26  1  0
 26 25  1  0
 25 24  1  0
 24  1  1  0
  1  2  2  0
  2  3  1  0
  3  4  2  0
  4  5  1  0
  5 34  1  0
 34 35  1  0
 35 36  1  0
 36 37  1  0
 37 38  1  0
 38 39  1  0
 39 40  1  0
  5  6  2  0
  4  7  1  0
  7 12  1  0
 12 14  1  0
 14 15  2  0
 15 16  1  0
 15 17  1  0
 17 18  2  0
 18 19  1  0
 19 20  2  0
 20 21  1  0
 21 22  1  0
 22 23  1  0
  7  8  1  0
  8  9  2  0
  9 10  1  0
 31 32  1  0
 32 33  1  0
 33 28  1  0
  6  1  1  0
 20 14  1  0
 10  3  1  0
 40 35  1  0
 23 19  1  0
 12 13  1  0
 10 11  1  0
M  END
> <meeko>
{"is_sidechain": false}

> <source_group>
FYN canonical

> <source_system>
FYN_saracatinib

> <source_run>
vina_seed5519_ex64

> <source_seed>
5519

> <vina_pose_rank>
8

> <vina_affinity_kcal_mol>
-8.6180000000000003

> <vina_rmsd_to_crystal_angstrom>
2.5804

> <minimizedAffinity>
-8.76016

> <CNNscore>
0.9104282260

> <CNNaffinity>
8.0257234573

> <CNN_VS>
7.3068451881

> <CNNaffinity_variance>
0.1967335492

$$$$
FYN_saracatinib__vina_seed5519_ex64__pose09


 40 45  0  0  0  0  0  0  0  0999 V2000
  -10.7130   13.1220   -7.7340 C   0  0  0  0  0  0  0  0  0  0  0  0
  -11.2020   14.3560   -7.8990 C   0  0  0  0  0  0  0  0  0  0  0  0
  -11.7580   14.7400   -9.0570 C   0  0  0  0  0  0  0  0  0  0  0  0
  -11.8660   13.9090  -10.1310 C   0  0  0  0  0  0  0  0  0  0  0  0
  -11.3810   12.6450   -9.9840 C   0  0  0  0  0  0  0  0  0  0  0  0
  -10.8230   12.3070   -8.7990 C   0  0  0  0  0  0  0  0  0  0  0  0
  -12.4490   14.4310  -11.2490 C   0  0  0  0  0  0  0  0  0  0  0  0
  -12.8490   15.6430  -11.1960 N   0  0  0  0  0  0  0  0  0  0  0  0
  -12.7040   16.3290  -10.1470 C   0  0  0  0  0  0  0  0  0  0  0  0
  -12.1770   15.9360   -9.0740 N   0  0  0  0  0  0  0  0  0  0  0  0
  -12.0950   16.5270   -8.2900 H   0  0  0  0  0  0  0  0  0  0  0  0
  -12.7240   13.9640  -12.4100 N   0  0  0  0  0  0  0  0  0  0  0  0
  -11.8840   13.5230  -12.8690 H   0  0  0  0  0  0  0  0  0  0  0  0
  -13.7420   13.8790  -13.1820 C   0  0  0  0  0  0  0  0  0  0  0  0
  -14.6920   12.9280  -12.9530 C   0  0  0  0  0  0  0  0  0  0  0  0
  -14.6260   11.7830  -11.6440 Cl  0  0  0  0  0  0  0  0  0  0  0  0
  -15.7820   12.8220  -13.7390 C   0  0  0  0  0  0  0  0  0  0  0  0
  -15.9760   13.6380  -14.7840 C   0  0  0  0  0  0  0  0  0  0  0  0
  -15.0490   14.5700  -15.0230 C   0  0  0  0  0  0  0  0  0  0  0  0
  -13.9640   14.6840  -14.2460 C   0  0  0  0  0  0  0  0  0  0  0  0
  -13.2570   15.6060  -14.6560 O   0  0  0  0  0  0  0  0  0  0  0  0
  -13.8450   16.1400  -15.8410 C   0  0  0  0  0  0  0  0  0  0  0  0
  -15.0550   15.3980  -15.9320 O   0  0  0  0  0  0  0  0  0  0  0  0
  -10.1460   12.7010   -6.5550 O   0  0  0  0  0  0  0  0  0  0  0  0
   -8.8260   13.1280   -6.3230 C   0  0  0  0  0  0  0  0  0  0  0  0
   -7.8340   11.9550   -6.2470 C   0  0  0  0  0  0  0  0  0  0  0  0
   -6.6950    7.8300   -9.9270 C   0  0  0  0  0  0  0  0  0  0  0  0
   -6.8700    8.6520   -8.7420 N   0  0  0  0  0  0  0  0  0  0  0  0
   -6.0970    9.8750   -8.8620 C   0  0  0  0  0  0  0  0  0  0  0  0
   -6.3060   10.8020   -7.6550 C   0  0  0  0  0  0  0  0  0  0  0  0
   -7.7130   11.1320   -7.4450 N   0  0  0  0  0  0  0  0  0  0  0  0
   -8.4580    9.8890   -7.3180 C   0  0  0  0  0  0  0  0  0  0  0  0
   -8.2710    8.9790   -8.5480 C   0  0  0  0  0  0  0  0  0  0  0  0
  -11.4220   11.7250  -11.0150 O   0  0  0  0  0  0  0  0  0  0  0  0
  -10.8730   10.4340  -10.9090 C   0  0  0  0  0  0  0  0  0  0  0  0
  -11.9170    9.3190  -10.9770 C   0  0  0  0  0  0  0  0  0  0  0  0
  -11.2610    7.9650  -11.2230 C   0  0  0  0  0  0  0  0  0  0  0  0
  -10.4830    7.9910  -12.3950 O   0  0  0  0  0  0  0  0  0  0  0  0
   -9.3980    8.8650  -12.2400 C   0  0  0  0  0  0  0  0  0  0  0  0
   -9.9060   10.2960  -12.0970 C   0  0  0  0  0  0  0  0  0  0  0  0
 27 28  1  0
 28 29  1  0
 29 30  1  0
 30 31  1  0
 31 26  1  0
 26 25  1  0
 25 24  1  0
 24  1  1  0
  1  2  2  0
  2  3  1  0
  3  4  2  0
  4  5  1  0
  5 34  1  0
 34 35  1  0
 35 36  1  0
 36 37  1  0
 37 38  1  0
 38 39  1  0
 39 40  1  0
  5  6  2  0
  4  7  1  0
  7 12  1  0
 12 14  1  0
 14 15  2  0
 15 16  1  0
 15 17  1  0
 17 18  2  0
 18 19  1  0
 19 20  2  0
 20 21  1  0
 21 22  1  0
 22 23  1  0
  7  8  1  0
  8  9  2  0
  9 10  1  0
 31 32  1  0
 32 33  1  0
 33 28  1  0
  6  1  1  0
 20 14  1  0
 10  3  1  0
 40 35  1  0
 23 19  1  0
 12 13  1  0
 10 11  1  0
M  END
> <meeko>
{"is_sidechain": false}

> <source_group>
FYN canonical

> <source_system>
FYN_saracatinib

> <source_run>
vina_seed5519_ex64

> <source_seed>
5519

> <vina_pose_rank>
9

> <vina_affinity_kcal_mol>
-8.5359999999999996

> <vina_rmsd_to_crystal_angstrom>
4.5994000000000002

> <minimizedAffinity>
-8.27707

> <CNNscore>
0.3209447563

> <CNNaffinity>
7.2028212547

> <CNN_VS>
2.3117077351

> <CNNaffinity_variance>
0.1480709463

$$$$
