BACE1_verubecestat__alternate_476_seed1103_ex32__pose01
     RDKit          3D

 45 47  0  0  0  0  0  0  0  0999 V2000
   27.6370   13.7660   24.5230 C   0  0  0  0  0  0  0  0  0  0  0  0
   26.9610   13.8800   23.2160 N   0  0  0  0  0  0  0  0  0  0  0  0
   25.8740   14.7510   22.9840 C   0  0  0  0  0  0  0  0  0  0  0  0
   25.6000   15.5880   24.0320 N   0  0  0  0  0  0  0  0  0  0  0  0
   25.2000   14.7860   21.8760 N   0  0  0  0  0  0  0  0  0  0  0  0
   25.4400   13.8250   20.8010 C   0  0  2  0  0  0  0  0  0  0  0  0
   24.8110   14.5080   19.5830 C   0  0  0  0  0  0  0  0  0  0  0  0
   24.7270   12.5040   21.0460 C   0  0  0  0  0  0  0  0  0  0  0  0
   24.0280   12.2730   22.2300 C   0  0  0  0  0  0  0  0  0  0  0  0
   23.3750   11.0870   22.4800 C   0  0  0  0  0  0  0  0  0  0  0  0
   22.7080   10.9840   23.7080 N   0  0  0  0  0  0  0  0  0  0  0  0
   23.2060   11.2210   24.9760 C   0  0  0  0  0  0  0  0  0  0  0  0
   24.3810   11.4410   25.2420 O   0  0  0  0  0  0  0  0  0  0  0  0
   22.1960   11.2330   26.0620 C   0  0  0  0  0  0  0  0  0  0  0  0
   20.8910   10.8550   25.7950 C   0  0  0  0  0  0  0  0  0  0  0  0
   19.9890   10.8870   26.8440 C   0  0  0  0  0  0  0  0  0  0  0  0
   20.4080   11.2820   28.1000 C   0  0  0  0  0  0  0  0  0  0  0  0
   19.5670   11.3370   29.1460 F   0  0  0  0  0  0  0  0  0  0  0  0
   21.7260   11.6440   28.2650 C   0  0  0  0  0  0  0  0  0  0  0  0
   22.6230   11.6300   27.2650 N   0  0  0  0  0  0  0  0  0  0  0  0
   23.3750   10.0710   21.5320 C   0  0  0  0  0  0  0  0  0  0  0  0
   24.0660   10.2820   20.3530 C   0  0  0  0  0  0  0  0  0  0  0  0
   24.7430   11.4650   20.1290 C   0  0  0  0  0  0  0  0  0  0  0  0
   25.4390   11.6350   18.9750 F   0  0  0  0  0  0  0  0  0  0  0  0
   26.9230   13.7110   20.5270 C   0  0  0  0  0  0  0  0  0  0  0  0
   27.7730   13.0540   21.9410 S   0  0  0  0  0  0  0  0  0  0  0  0
   29.1280   13.5720   21.8870 O   0  0  0  0  0  0  0  0  0  0  0  0
   27.4460   11.6800   22.1620 O   0  0  0  0  0  0  0  0  0  0  0  0
   26.8993   13.8904   25.3294 H   0  0  0  0  0  0  0  0  0  0  0  0
   28.1084   12.7757   24.6068 H   0  0  0  0  0  0  0  0  0  0  0  0
   28.4071   14.5470   24.6068 H   0  0  0  0  0  0  0  0  0  0  0  0
   24.8580   16.2330   23.9660 H   0  0  0  0  0  0  0  0  0  0  0  0
   26.1440   15.5460   24.8520 H   0  0  0  0  0  0  0  0  0  0  0  0
   24.1017   15.2782   19.9201 H   0  0  0  0  0  0  0  0  0  0  0  0
   25.6004   14.9766   18.9770 H   0  0  0  0  0  0  0  0  0  0  0  0
   24.2791   13.7597   18.9770 H   0  0  0  0  0  0  0  0  0  0  0  0
   23.9971   13.0664   22.9913 H   0  0  0  0  0  0  0  0  0  0  0  0
   21.7640   10.7090   23.6610 H   0  0  0  0  0  0  0  0  0  0  0  0
   20.5828   10.5410   24.7868 H   0  0  0  0  0  0  0  0  0  0  0  0
   18.9405   10.5985   26.6782 H   0  0  0  0  0  0  0  0  0  0  0  0
   22.0608   11.9600   29.2640 H   0  0  0  0  0  0  0  0  0  0  0  0
   22.8410    9.1267   21.7141 H   0  0  0  0  0  0  0  0  0  0  0  0
   24.0767    9.4968   19.5827 H   0  0  0  0  0  0  0  0  0  0  0  0
   27.0813   13.0427   19.6677 H   0  0  0  0  0  0  0  0  0  0  0  0
   27.3207   14.7131   20.3090 H   0  0  0  0  0  0  0  0  0  0  0  0
  1  2  1  0
  2  3  1  0
  3  4  1  0
  3  5  2  0
  5  6  1  0
  6  7  1  6
  6  8  1  0
  8  9  2  0
  9 10  1  0
 10 11  1  0
 11 12  1  0
 12 13  2  0
 12 14  1  0
 14 15  2  0
 15 16  1  0
 16 17  2  0
 17 18  1  0
 17 19  1  0
 19 20  2  0
 10 21  2  0
 21 22  1  0
 22 23  2  0
 23 24  1  0
  6 25  1  0
 25 26  1  0
 26 27  2  0
 26 28  2  0
 26  2  1  0
 23  8  1  0
 20 14  1  0
  1 29  1  0
  1 30  1  0
  1 31  1  0
  4 32  1  0
  4 33  1  0
  7 34  1  0
  7 35  1  0
  7 36  1  0
  9 37  1  0
 11 38  1  0
 15 39  1  0
 16 40  1  0
 19 41  1  0
 21 42  1  0
 22 43  1  0
 25 44  1  0
 25 45  1  0
M  END
>  <meeko>  (1)
{"is_sidechain": false}

>  <source_group>  (1)
BACE1-476

>  <source_system>  (1)
BACE1_verubecestat

>  <source_run>  (1)
alternate_476_seed1103_ex32

>  <source_seed>  (1)
1103

>  <vina_pose_rank>  (1)
1

>  <vina_affinity_kcal_mol>  (1)
-9.1489999999999991

>  <vina_rmsd_to_crystal_angstrom>  (1)
7.1360000000000001

$$$$
BACE1_verubecestat__alternate_476_seed1103_ex32__pose02
     RDKit          3D

 45 47  0  0  0  0  0  0  0  0999 V2000
   23.0860   13.5180   20.2120 C   0  0  0  0  0  0  0  0  0  0  0  0
   24.4750   13.1440   20.5430 N   0  0  0  0  0  0  0  0  0  0  0  0
   24.8690   11.8180   20.8290 C   0  0  0  0  0  0  0  0  0  0  0  0
   23.8840   10.8900   20.6230 N   0  0  0  0  0  0  0  0  0  0  0  0
   26.0590   11.4880   21.2270 N   0  0  0  0  0  0  0  0  0  0  0  0
   27.0720   12.4960   21.5340 C   0  0  2  0  0  0  0  0  0  0  0  0
   28.3770   11.6960   21.4860 C   0  0  0  0  0  0  0  0  0  0  0  0
   26.9010   13.0710   22.9310 C   0  0  0  0  0  0  0  0  0  0  0  0
   25.8220   12.7020   23.7340 C   0  0  0  0  0  0  0  0  0  0  0  0
   25.6410   13.2080   25.0010 C   0  0  0  0  0  0  0  0  0  0  0  0
   24.5170   12.7530   25.7040 N   0  0  0  0  0  0  0  0  0  0  0  0
   23.1860   12.8270   25.3320 C   0  0  0  0  0  0  0  0  0  0  0  0
   22.7590   13.4340   24.3590 O   0  0  0  0  0  0  0  0  0  0  0  0
   22.2460   12.0660   26.1910 C   0  0  0  0  0  0  0  0  0  0  0  0
   21.0700   11.5700   25.6580 C   0  0  0  0  0  0  0  0  0  0  0  0
   20.2290   10.8700   26.5050 C   0  0  0  0  0  0  0  0  0  0  0  0
   20.5820   10.6870   27.8280 C   0  0  0  0  0  0  0  0  0  0  0  0
   19.7930   10.0220   28.6890 F   0  0  0  0  0  0  0  0  0  0  0  0
   21.7700   11.2240   28.2670 C   0  0  0  0  0  0  0  0  0  0  0  0
   22.6040   11.9130   27.4710 N   0  0  0  0  0  0  0  0  0  0  0  0
   26.5560   14.1040   25.5390 C   0  0  0  0  0  0  0  0  0  0  0  0
   27.6310   14.4850   24.7540 C   0  0  0  0  0  0  0  0  0  0  0  0
   27.7830   13.9930   23.4730 C   0  0  0  0  0  0  0  0  0  0  0  0
   28.8310   14.4050   22.7140 F   0  0  0  0  0  0  0  0  0  0  0  0
   27.1400   13.5210   20.4230 C   0  0  0  0  0  0  0  0  0  0  0  0
   25.6110   14.4150   20.3020 S   0  0  0  0  0  0  0  0  0  0  0  0
   25.4900   14.8430   18.9200 O   0  0  0  0  0  0  0  0  0  0  0  0
   25.4100   15.2710   21.4290 O   0  0  0  0  0  0  0  0  0  0  0  0
   22.5164   13.6714   21.1405 H   0  0  0  0  0  0  0  0  0  0  0  0
   23.0868   14.4479   19.6244 H   0  0  0  0  0  0  0  0  0  0  0  0
   22.6197   12.7134   19.6244 H   0  0  0  0  0  0  0  0  0  0  0  0
   24.0620    9.9370   20.7950 H   0  0  0  0  0  0  0  0  0  0  0  0
   22.9970   11.1750   20.3030 H   0  0  0  0  0  0  0  0  0  0  0  0
   28.7172   11.4875   22.5111 H   0  0  0  0  0  0  0  0  0  0  0  0
   28.2062   10.7472   20.9562 H   0  0  0  0  0  0  0  0  0  0  0  0
   29.1450   12.2787   20.9562 H   0  0  0  0  0  0  0  0  0  0  0  0
   25.0899   11.9812   23.3408 H   0  0  0  0  0  0  0  0  0  0  0  0
   24.6980   12.3260   26.5720 H   0  0  0  0  0  0  0  0  0  0  0  0
   20.8128   11.7262   24.6000 H   0  0  0  0  0  0  0  0  0  0  0  0
   19.2813   10.4601   26.1257 H   0  0  0  0  0  0  0  0  0  0  0  0
   22.0505   11.0822   29.3211 H   0  0  0  0  0  0  0  0  0  0  0  0
   26.4303   14.4989   26.5579 H   0  0  0  0  0  0  0  0  0  0  0  0
   28.3740   15.1892   25.1564 H   0  0  0  0  0  0  0  0  0  0  0  0
   27.9563   14.2279   20.6329 H   0  0  0  0  0  0  0  0  0  0  0  0
   27.3223   13.0004   19.4713 H   0  0  0  0  0  0  0  0  0  0  0  0
  1  2  1  0
  2  3  1  0
  3  4  1  0
  3  5  2  0
  5  6  1  0
  6  7  1  1
  6  8  1  0
  8  9  2  0
  9 10  1  0
 10 11  1  0
 11 12  1  0
 12 13  2  0
 12 14  1  0
 14 15  2  0
 15 16  1  0
 16 17  2  0
 17 18  1  0
 17 19  1  0
 19 20  2  0
 10 21  2  0
 21 22  1  0
 22 23  2  0
 23 24  1  0
  6 25  1  0
 25 26  1  0
 26 27  2  0
 26 28  2  0
 26  2  1  0
 23  8  1  0
 20 14  1  0
  1 29  1  0
  1 30  1  0
  1 31  1  0
  4 32  1  0
  4 33  1  0
  7 34  1  0
  7 35  1  0
  7 36  1  0
  9 37  1  0
 11 38  1  0
 15 39  1  0
 16 40  1  0
 19 41  1  0
 21 42  1  0
 22 43  1  0
 25 44  1  0
 25 45  1  0
M  END
>  <meeko>  (2)
{"is_sidechain": false}

>  <source_group>  (2)
BACE1-476

>  <source_system>  (2)
BACE1_verubecestat

>  <source_run>  (2)
alternate_476_seed1103_ex32

>  <source_seed>  (2)
1103

>  <vina_pose_rank>  (2)
2

>  <vina_affinity_kcal_mol>  (2)
-8.5530000000000008

>  <vina_rmsd_to_crystal_angstrom>  (2)
7.5345000000000004

$$$$
BACE1_verubecestat__alternate_476_seed1103_ex32__pose03
     RDKit          3D

 45 47  0  0  0  0  0  0  0  0999 V2000
   28.5280   13.3960   24.0300 C   0  0  0  0  0  0  0  0  0  0  0  0
   27.6160   13.5130   22.8750 N   0  0  0  0  0  0  0  0  0  0  0  0
   26.7250   14.5960   22.7030 C   0  0  0  0  0  0  0  0  0  0  0  0
   26.8890   15.6000   23.6200 N   0  0  0  0  0  0  0  0  0  0  0  0
   25.8430   14.6610   21.7550 N   0  0  0  0  0  0  0  0  0  0  0  0
   25.6130   13.5440   20.8410 C   0  0  2  0  0  0  0  0  0  0  0  0
   24.8920   14.2060   19.6640 C   0  0  0  0  0  0  0  0  0  0  0  0
   24.7000   12.4900   21.4470 C   0  0  0  0  0  0  0  0  0  0  0  0
   24.2490   12.5980   22.7610 C   0  0  0  0  0  0  0  0  0  0  0  0
   23.4240   11.6580   23.3360 C   0  0  0  0  0  0  0  0  0  0  0  0
   23.0410   11.8860   24.6640 N   0  0  0  0  0  0  0  0  0  0  0  0
   22.0250   12.6980   25.1360 C   0  0  0  0  0  0  0  0  0  0  0  0
   21.3620   13.4660   24.4510 O   0  0  0  0  0  0  0  0  0  0  0  0
   21.7300   12.5670   26.5830 C   0  0  0  0  0  0  0  0  0  0  0  0
   22.6750   12.9510   27.5190 C   0  0  0  0  0  0  0  0  0  0  0  0
   22.3480   12.8050   28.8550 C   0  0  0  0  0  0  0  0  0  0  0  0
   21.1130   12.2960   29.2100 C   0  0  0  0  0  0  0  0  0  0  0  0
   20.7550   12.1280   30.4940 F   0  0  0  0  0  0  0  0  0  0  0  0
   20.2420   11.9380   28.2060 C   0  0  0  0  0  0  0  0  0  0  0  0
   20.5330   12.0620   26.9010 N   0  0  0  0  0  0  0  0  0  0  0  0
   22.9880   10.5610   22.6030 C   0  0  0  0  0  0  0  0  0  0  0  0
   23.4280   10.4360   21.2970 C   0  0  0  0  0  0  0  0  0  0  0  0
   24.2820   11.3700   20.7440 C   0  0  0  0  0  0  0  0  0  0  0  0
   24.7230   11.2080   19.4700 F   0  0  0  0  0  0  0  0  0  0  0  0
   26.9330   13.0230   20.3160 C   0  0  0  0  0  0  0  0  0  0  0  0
   27.9130   12.3550   21.6360 S   0  0  0  0  0  0  0  0  0  0  0  0
   29.3010   12.5000   21.2350 O   0  0  0  0  0  0  0  0  0  0  0  0
   27.3490   11.1480   22.1540 O   0  0  0  0  0  0  0  0  0  0  0  0
   27.9497   13.4702   24.9628 H   0  0  0  0  0  0  0  0  0  0  0  0
   29.0426   12.4245   23.9939 H   0  0  0  0  0  0  0  0  0  0  0  0
   29.2712   14.2062   23.9939 H   0  0  0  0  0  0  0  0  0  0  0  0
   26.3140   16.3980   23.5830 H   0  0  0  0  0  0  0  0  0  0  0  0
   27.5810   15.5240   24.3160 H   0  0  0  0  0  0  0  0  0  0  0  0
   24.1319   14.9039   20.0452 H   0  0  0  0  0  0  0  0  0  0  0  0
   25.6204   14.7565   19.0505 H   0  0  0  0  0  0  0  0  0  0  0  0
   24.4055   13.4333   19.0505 H   0  0  0  0  0  0  0  0  0  0  0  0
   24.5634   13.4653   23.3601 H   0  0  0  0  0  0  0  0  0  0  0  0
   23.5620   11.4080   25.3500 H   0  0  0  0  0  0  0  0  0  0  0  0
   23.6499   13.3572   27.2116 H   0  0  0  0  0  0  0  0  0  0  0  0
   23.0695   13.0935   29.6336 H   0  0  0  0  0  0  0  0  0  0  0  0
   19.2595   11.5304   28.4864 H   0  0  0  0  0  0  0  0  0  0  0  0
   22.3134    9.8144   23.0475 H   0  0  0  0  0  0  0  0  0  0  0  0
   23.0931    9.5812   20.6911 H   0  0  0  0  0  0  0  0  0  0  0  0
   26.7405   12.2340   19.5741 H   0  0  0  0  0  0  0  0  0  0  0  0
   27.4831   13.8556   19.8534 H   0  0  0  0  0  0  0  0  0  0  0  0
  1  2  1  0
  2  3  1  0
  3  4  1  0
  3  5  2  0
  5  6  1  0
  6  7  1  6
  6  8  1  0
  8  9  2  0
  9 10  1  0
 10 11  1  0
 11 12  1  0
 12 13  2  0
 12 14  1  0
 14 15  2  0
 15 16  1  0
 16 17  2  0
 17 18  1  0
 17 19  1  0
 19 20  2  0
 10 21  2  0
 21 22  1  0
 22 23  2  0
 23 24  1  0
  6 25  1  0
 25 26  1  0
 26 27  2  0
 26 28  2  0
 26  2  1  0
 23  8  1  0
 20 14  1  0
  1 29  1  0
  1 30  1  0
  1 31  1  0
  4 32  1  0
  4 33  1  0
  7 34  1  0
  7 35  1  0
  7 36  1  0
  9 37  1  0
 11 38  1  0
 15 39  1  0
 16 40  1  0
 19 41  1  0
 21 42  1  0
 22 43  1  0
 25 44  1  0
 25 45  1  0
M  END
>  <meeko>  (3)
{"is_sidechain": false}

>  <source_group>  (3)
BACE1-476

>  <source_system>  (3)
BACE1_verubecestat

>  <source_run>  (3)
alternate_476_seed1103_ex32

>  <source_seed>  (3)
1103

>  <vina_pose_rank>  (3)
3

>  <vina_affinity_kcal_mol>  (3)
-8.5419999999999998

>  <vina_rmsd_to_crystal_angstrom>  (3)
7.4946000000000002

$$$$
BACE1_verubecestat__alternate_476_seed1103_ex32__pose04
     RDKit          3D

 45 47  0  0  0  0  0  0  0  0999 V2000
   28.5050   13.5820   24.8640 C   0  0  0  0  0  0  0  0  0  0  0  0
   27.8450   14.0560   23.6320 N   0  0  0  0  0  0  0  0  0  0  0  0
   26.9990   15.1870   23.5980 C   0  0  0  0  0  0  0  0  0  0  0  0
   26.9660   15.8910   24.7710 N   0  0  0  0  0  0  0  0  0  0  0  0
   26.3260   15.5530   22.5510 N   0  0  0  0  0  0  0  0  0  0  0  0
   26.2940   14.7410   21.3350 C   0  0  2  0  0  0  0  0  0  0  0  0
   25.8200   15.7360   20.2720 C   0  0  0  0  0  0  0  0  0  0  0  0
   25.2840   13.6080   21.4330 C   0  0  0  0  0  0  0  0  0  0  0  0
   24.5190   13.4220   22.5830 C   0  0  0  0  0  0  0  0  0  0  0  0
   23.6010   12.4030   22.7000 C   0  0  0  0  0  0  0  0  0  0  0  0
   22.8960   12.3290   23.9080 N   0  0  0  0  0  0  0  0  0  0  0  0
   23.2260   11.6230   25.0510 C   0  0  0  0  0  0  0  0  0  0  0  0
   24.1500   10.8250   25.1440 O   0  0  0  0  0  0  0  0  0  0  0  0
   22.3870   11.9140   26.2390 C   0  0  0  0  0  0  0  0  0  0  0  0
   21.0140   11.7500   26.1730 C   0  0  0  0  0  0  0  0  0  0  0  0
   20.2810   12.0370   27.3110 C   0  0  0  0  0  0  0  0  0  0  0  0
   20.9250   12.4670   28.4550 C   0  0  0  0  0  0  0  0  0  0  0  0
   20.2540   12.7670   29.5800 F   0  0  0  0  0  0  0  0  0  0  0  0
   22.2950   12.6050   28.4210 C   0  0  0  0  0  0  0  0  0  0  0  0
   23.0330   12.3390   27.3300 N   0  0  0  0  0  0  0  0  0  0  0  0
   23.3870   11.5250   21.6450 C   0  0  0  0  0  0  0  0  0  0  0  0
   24.1400   11.6920   20.4960 C   0  0  0  0  0  0  0  0  0  0  0  0
   25.0810   12.6990   20.4060 C   0  0  0  0  0  0  0  0  0  0  0  0
   25.8280   12.8240   19.2780 F   0  0  0  0  0  0  0  0  0  0  0  0
   27.6960   14.3200   20.9550 C   0  0  0  0  0  0  0  0  0  0  0  0
   28.3940   13.2690   22.2030 S   0  0  0  0  0  0  0  0  0  0  0  0
   29.8330   13.4500   22.1380 O   0  0  0  0  0  0  0  0  0  0  0  0
   27.7460   11.9950   22.2430 O   0  0  0  0  0  0  0  0  0  0  0  0
   27.9658   13.9693   25.7411 H   0  0  0  0  0  0  0  0  0  0  0  0
   28.4967   12.4822   24.8846 H   0  0  0  0  0  0  0  0  0  0  0  0
   29.5445   13.9412   24.8846 H   0  0  0  0  0  0  0  0  0  0  0  0
   26.4050   16.6970   24.8460 H   0  0  0  0  0  0  0  0  0  0  0  0
   27.5050   15.5940   25.5400 H   0  0  0  0  0  0  0  0  0  0  0  0
   25.3969   16.6242   20.7639 H   0  0  0  0  0  0  0  0  0  0  0  0
   26.6722   16.0355   19.6442 H   0  0  0  0  0  0  0  0  0  0  0  0
   25.0505   15.2630   19.6442 H   0  0  0  0  0  0  0  0  0  0  0  0
   24.6536   14.1142   23.4273 H   0  0  0  0  0  0  0  0  0  0  0  0
   22.0590   12.8460   23.9490 H   0  0  0  0  0  0  0  0  0  0  0  0
   20.5242   11.4045   25.2507 H   0  0  0  0  0  0  0  0  0  0  0  0
   19.1870   11.9229   27.3047 H   0  0  0  0  0  0  0  0  0  0  0  0
   22.8095   12.9494   29.3302 H   0  0  0  0  0  0  0  0  0  0  0  0
   22.6407   10.7204   21.7207 H   0  0  0  0  0  0  0  0  0  0  0  0
   23.9871   11.0140   19.6434 H   0  0  0  0  0  0  0  0  0  0  0  0
   27.6632   13.7746   20.0003 H   0  0  0  0  0  0  0  0  0  0  0  0
   28.3220   15.2194   20.8588 H   0  0  0  0  0  0  0  0  0  0  0  0
  1  2  1  0
  2  3  1  0
  3  4  1  0
  3  5  2  0
  5  6  1  0
  6  7  1  6
  6  8  1  0
  8  9  2  0
  9 10  1  0
 10 11  1  0
 11 12  1  0
 12 13  2  0
 12 14  1  0
 14 15  2  0
 15 16  1  0
 16 17  2  0
 17 18  1  0
 17 19  1  0
 19 20  2  0
 10 21  2  0
 21 22  1  0
 22 23  2  0
 23 24  1  0
  6 25  1  0
 25 26  1  0
 26 27  2  0
 26 28  2  0
 26  2  1  0
 23  8  1  0
 20 14  1  0
  1 29  1  0
  1 30  1  0
  1 31  1  0
  4 32  1  0
  4 33  1  0
  7 34  1  0
  7 35  1  0
  7 36  1  0
  9 37  1  0
 11 38  1  0
 15 39  1  0
 16 40  1  0
 19 41  1  0
 21 42  1  0
 22 43  1  0
 25 44  1  0
 25 45  1  0
M  END
>  <meeko>  (4)
{"is_sidechain": false}

>  <source_group>  (4)
BACE1-476

>  <source_system>  (4)
BACE1_verubecestat

>  <source_run>  (4)
alternate_476_seed1103_ex32

>  <source_seed>  (4)
1103

>  <vina_pose_rank>  (4)
4

>  <vina_affinity_kcal_mol>  (4)
-8.5399999999999991

>  <vina_rmsd_to_crystal_angstrom>  (4)
7.5514000000000001

$$$$
BACE1_verubecestat__alternate_476_seed1103_ex32__pose05
     RDKit          3D

 45 47  0  0  0  0  0  0  0  0999 V2000
   17.0580   14.5180   26.3860 C   0  0  0  0  0  0  0  0  0  0  0  0
   17.8560   13.3550   26.8210 N   0  0  0  0  0  0  0  0  0  0  0  0
   18.0350   13.0080   28.1790 C   0  0  0  0  0  0  0  0  0  0  0  0
   17.2820   13.7530   29.0460 N   0  0  0  0  0  0  0  0  0  0  0  0
   18.8200   12.0580   28.5840 N   0  0  0  0  0  0  0  0  0  0  0  0
   19.6900   11.3340   27.6590 C   0  0  2  0  0  0  0  0  0  0  0  0
   20.0370   10.0620   28.4390 C   0  0  0  0  0  0  0  0  0  0  0  0
   20.9730   12.0960   27.3670 C   0  0  0  0  0  0  0  0  0  0  0  0
   21.5940   12.0100   26.1220 C   0  0  0  0  0  0  0  0  0  0  0  0
   22.7570   12.6870   25.8310 C   0  0  0  0  0  0  0  0  0  0  0  0
   23.2760   12.5170   24.5410 N   0  0  0  0  0  0  0  0  0  0  0  0
   23.1300   13.3440   23.4420 C   0  0  0  0  0  0  0  0  0  0  0  0
   22.3960   14.3220   23.3890 O   0  0  0  0  0  0  0  0  0  0  0  0
   23.9760   13.0000   22.2730 C   0  0  0  0  0  0  0  0  0  0  0  0
   23.4380   13.0290   20.9980 C   0  0  0  0  0  0  0  0  0  0  0  0
   24.2710   12.6970   19.9450 C   0  0  0  0  0  0  0  0  0  0  0  0
   25.5880   12.3560   20.1900 C   0  0  0  0  0  0  0  0  0  0  0  0
   26.4310   12.0180   19.2000 F   0  0  0  0  0  0  0  0  0  0  0  0
   26.0290   12.3500   21.4940 C   0  0  0  0  0  0  0  0  0  0  0  0
   25.2430   12.6620   22.5370 N   0  0  0  0  0  0  0  0  0  0  0  0
   23.3470   13.5110   26.7810 C   0  0  0  0  0  0  0  0  0  0  0  0
   22.7470   13.6060   28.0230 C   0  0  0  0  0  0  0  0  0  0  0  0
   21.5980   12.8960   28.3120 C   0  0  0  0  0  0  0  0  0  0  0  0
   21.0440   12.9830   29.5490 F   0  0  0  0  0  0  0  0  0  0  0  0
   18.9080   10.9040   26.4380 C   0  0  0  0  0  0  0  0  0  0  0  0
   18.3340   12.3190   25.5320 S   0  0  0  0  0  0  0  0  0  0  0  0
   17.1250   11.9060   24.8420 O   0  0  0  0  0  0  0  0  0  0  0  0
   19.4140   13.0210   24.9110 O   0  0  0  0  0  0  0  0  0  0  0  0
   16.6868   15.0589   27.2690 H   0  0  0  0  0  0  0  0  0  0  0  0
   17.6868   15.1890   25.7824 H   0  0  0  0  0  0  0  0  0  0  0  0
   16.2057   14.1728   25.7824 H   0  0  0  0  0  0  0  0  0  0  0  0
   17.3370   13.5860   30.0150 H   0  0  0  0  0  0  0  0  0  0  0  0
   16.6830   14.4550   28.7010 H   0  0  0  0  0  0  0  0  0  0  0  0
   19.9811   10.2670   29.5183 H   0  0  0  0  0  0  0  0  0  0  0  0
   19.3231    9.2665   28.1794 H   0  0  0  0  0  0  0  0  0  0  0  0
   21.0560    9.7392   28.1794 H   0  0  0  0  0  0  0  0  0  0  0  0
   21.1388   11.3789   25.3445 H   0  0  0  0  0  0  0  0  0  0  0  0
   23.8140   11.7040   24.3990 H   0  0  0  0  0  0  0  0  0  0  0  0
   22.3870   13.3058   20.8285 H   0  0  0  0  0  0  0  0  0  0  0  0
   23.8862   12.7043   18.9145 H   0  0  0  0  0  0  0  0  0  0  0  0
   27.0760   12.0764   21.6911 H   0  0  0  0  0  0  0  0  0  0  0  0
   24.2651   14.0718   26.5518 H   0  0  0  0  0  0  0  0  0  0  0  0
   23.1908   14.2559   28.7915 H   0  0  0  0  0  0  0  0  0  0  0  0
   19.5566   10.2978   25.7885 H   0  0  0  0  0  0  0  0  0  0  0  0
   18.0379   10.3151   26.7638 H   0  0  0  0  0  0  0  0  0  0  0  0
  1  2  1  0
  2  3  1  0
  3  4  1  0
  3  5  2  0
  5  6  1  0
  6  7  1  1
  6  8  1  0
  8  9  2  0
  9 10  1  0
 10 11  1  0
 11 12  1  0
 12 13  2  0
 12 14  1  0
 14 15  2  0
 15 16  1  0
 16 17  2  0
 17 18  1  0
 17 19  1  0
 19 20  2  0
 10 21  2  0
 21 22  1  0
 22 23  2  0
 23 24  1  0
  6 25  1  0
 25 26  1  0
 26 27  2  0
 26 28  2  0
 26  2  1  0
 23  8  1  0
 20 14  1  0
  1 29  1  0
  1 30  1  0
  1 31  1  0
  4 32  1  0
  4 33  1  0
  7 34  1  0
  7 35  1  0
  7 36  1  0
  9 37  1  0
 11 38  1  0
 15 39  1  0
 16 40  1  0
 19 41  1  0
 21 42  1  0
 22 43  1  0
 25 44  1  0
 25 45  1  0
M  END
>  <meeko>  (5)
{"is_sidechain": false}

>  <source_group>  (5)
BACE1-476

>  <source_system>  (5)
BACE1_verubecestat

>  <source_run>  (5)
alternate_476_seed1103_ex32

>  <source_seed>  (5)
1103

>  <vina_pose_rank>  (5)
5

>  <vina_affinity_kcal_mol>  (5)
-8.3379999999999992

>  <vina_rmsd_to_crystal_angstrom>  (5)
6.8402000000000003

$$$$
BACE1_verubecestat__alternate_476_seed1103_ex32__pose06
     RDKit          3D

 45 47  0  0  0  0  0  0  0  0999 V2000
   17.0310   14.5220   26.4520 C   0  0  0  0  0  0  0  0  0  0  0  0
   17.8270   13.3530   26.8750 N   0  0  0  0  0  0  0  0  0  0  0  0
   18.0100   12.9950   28.2300 C   0  0  0  0  0  0  0  0  0  0  0  0
   17.2620   13.7350   29.1060 N   0  0  0  0  0  0  0  0  0  0  0  0
   18.7920   12.0380   28.6240 N   0  0  0  0  0  0  0  0  0  0  0  0
   19.6570   11.3190   27.6900 C   0  0  2  0  0  0  0  0  0  0  0  0
   20.0030   10.0400   28.4580 C   0  0  0  0  0  0  0  0  0  0  0  0
   20.9410   12.0800   27.3990 C   0  0  0  0  0  0  0  0  0  0  0  0
   21.5980   11.9430   26.1770 C   0  0  0  0  0  0  0  0  0  0  0  0
   22.7630   12.6170   25.8880 C   0  0  0  0  0  0  0  0  0  0  0  0
   23.3200   12.3930   24.6230 N   0  0  0  0  0  0  0  0  0  0  0  0
   23.7350   11.1950   24.0680 C   0  0  0  0  0  0  0  0  0  0  0  0
   23.7990   10.1280   24.6650 O   0  0  0  0  0  0  0  0  0  0  0  0
   24.0860   11.2520   22.6290 C   0  0  0  0  0  0  0  0  0  0  0  0
   23.3720   10.4980   21.7130 C   0  0  0  0  0  0  0  0  0  0  0  0
   23.7430   10.5870   20.3830 C   0  0  0  0  0  0  0  0  0  0  0  0
   24.7900   11.4100   20.0150 C   0  0  0  0  0  0  0  0  0  0  0  0
   25.1920   11.5210   18.7380 F   0  0  0  0  0  0  0  0  0  0  0  0
   25.4440   12.1160   20.9990 C   0  0  0  0  0  0  0  0  0  0  0  0
   25.1100   12.0450   22.2990 N   0  0  0  0  0  0  0  0  0  0  0  0
   23.3200   13.4890   26.8160 C   0  0  0  0  0  0  0  0  0  0  0  0
   22.6830   13.6340   28.0360 C   0  0  0  0  0  0  0  0  0  0  0  0
   21.5330   12.9270   28.3240 C   0  0  0  0  0  0  0  0  0  0  0  0
   20.9440   13.0650   29.5390 F   0  0  0  0  0  0  0  0  0  0  0  0
   18.8690   10.9030   26.4680 C   0  0  0  0  0  0  0  0  0  0  0  0
   18.2960   12.3260   25.5760 S   0  0  0  0  0  0  0  0  0  0  0  0
   17.0840   11.9230   24.8870 O   0  0  0  0  0  0  0  0  0  0  0  0
   19.3760   13.0300   24.9570 O   0  0  0  0  0  0  0  0  0  0  0  0
   16.6660   15.0580   27.3405 H   0  0  0  0  0  0  0  0  0  0  0  0
   17.6593   15.1951   25.8501 H   0  0  0  0  0  0  0  0  0  0  0  0
   16.1745   14.1840   25.8501 H   0  0  0  0  0  0  0  0  0  0  0  0
   17.3200   13.5600   30.0730 H   0  0  0  0  0  0  0  0  0  0  0  0
   16.6650   14.4420   28.7690 H   0  0  0  0  0  0  0  0  0  0  0  0
   19.9500   10.2358   29.5391 H   0  0  0  0  0  0  0  0  0  0  0  0
   19.2868    9.2482   28.1932 H   0  0  0  0  0  0  0  0  0  0  0  0
   21.0207    9.7173   28.1932 H   0  0  0  0  0  0  0  0  0  0  0  0
   21.1703   11.2726   25.4169 H   0  0  0  0  0  0  0  0  0  0  0  0
   23.4300   13.1900   24.0550 H   0  0  0  0  0  0  0  0  0  0  0  0
   22.5404    9.8520   22.0310 H   0  0  0  0  0  0  0  0  0  0  0  0
   23.2057   10.0040   19.6205 H   0  0  0  0  0  0  0  0  0  0  0  0
   26.2796   12.7693   20.7077 H   0  0  0  0  0  0  0  0  0  0  0  0
   24.2398   14.0473   26.5875 H   0  0  0  0  0  0  0  0  0  0  0  0
   23.0989   14.3222   28.7866 H   0  0  0  0  0  0  0  0  0  0  0  0
   19.5133   10.3004   25.8109 H   0  0  0  0  0  0  0  0  0  0  0  0
   17.9979   10.3149   26.7925 H   0  0  0  0  0  0  0  0  0  0  0  0
  1  2  1  0
  2  3  1  0
  3  4  1  0
  3  5  2  0
  5  6  1  0
  6  7  1  1
  6  8  1  0
  8  9  2  0
  9 10  1  0
 10 11  1  0
 11 12  1  0
 12 13  2  0
 12 14  1  0
 14 15  2  0
 15 16  1  0
 16 17  2  0
 17 18  1  0
 17 19  1  0
 19 20  2  0
 10 21  2  0
 21 22  1  0
 22 23  2  0
 23 24  1  0
  6 25  1  0
 25 26  1  0
 26 27  2  0
 26 28  2  0
 26  2  1  0
 23  8  1  0
 20 14  1  0
  1 29  1  0
  1 30  1  0
  1 31  1  0
  4 32  1  0
  4 33  1  0
  7 34  1  0
  7 35  1  0
  7 36  1  0
  9 37  1  0
 11 38  1  0
 15 39  1  0
 16 40  1  0
 19 41  1  0
 21 42  1  0
 22 43  1  0
 25 44  1  0
 25 45  1  0
M  END
>  <meeko>  (6)
{"is_sidechain": false}

>  <source_group>  (6)
BACE1-476

>  <source_system>  (6)
BACE1_verubecestat

>  <source_run>  (6)
alternate_476_seed1103_ex32

>  <source_seed>  (6)
1103

>  <vina_pose_rank>  (6)
6

>  <vina_affinity_kcal_mol>  (6)
-8.2530000000000001

>  <vina_rmsd_to_crystal_angstrom>  (6)
6.8255999999999997

$$$$
BACE1_verubecestat__alternate_476_seed1103_ex32__pose07
     RDKit          3D

 45 47  0  0  0  0  0  0  0  0999 V2000
   28.8840   16.9730   24.9100 C   0  0  0  0  0  0  0  0  0  0  0  0
   28.6950   15.6960   24.1940 N   0  0  0  0  0  0  0  0  0  0  0  0
   28.9970   15.5290   22.8240 C   0  0  0  0  0  0  0  0  0  0  0  0
   29.6200   16.6080   22.2580 N   0  0  0  0  0  0  0  0  0  0  0  0
   28.7360   14.4490   22.1540 N   0  0  0  0  0  0  0  0  0  0  0  0
   27.9860   13.3420   22.7430 C   0  0  2  0  0  0  0  0  0  0  0  0
   28.3270   12.1670   21.8220 C   0  0  0  0  0  0  0  0  0  0  0  0
   26.4850   13.5810   22.6980 C   0  0  0  0  0  0  0  0  0  0  0  0
   25.6360   13.0110   23.6460 C   0  0  0  0  0  0  0  0  0  0  0  0
   24.2740   13.2090   23.6280 C   0  0  0  0  0  0  0  0  0  0  0  0
   23.5350   12.5810   24.6390 N   0  0  0  0  0  0  0  0  0  0  0  0
   23.2810   13.0340   25.9220 C   0  0  0  0  0  0  0  0  0  0  0  0
   23.7840   14.0270   26.4300 O   0  0  0  0  0  0  0  0  0  0  0  0
   22.2890   12.2410   26.6880 C   0  0  0  0  0  0  0  0  0  0  0  0
   21.1000   11.8600   26.0920 C   0  0  0  0  0  0  0  0  0  0  0  0
   20.2100   11.1230   26.8540 C   0  0  0  0  0  0  0  0  0  0  0  0
   20.5290   10.7940   28.1570 C   0  0  0  0  0  0  0  0  0  0  0  0
   19.6930   10.0890   28.9380 F   0  0  0  0  0  0  0  0  0  0  0  0
   21.7340   11.2240   28.6630 C   0  0  0  0  0  0  0  0  0  0  0  0
   22.6150   11.9450   27.9510 N   0  0  0  0  0  0  0  0  0  0  0  0
   23.6930   14.0160   22.6580 C   0  0  0  0  0  0  0  0  0  0  0  0
   24.5200   14.5870   21.7070 C   0  0  0  0  0  0  0  0  0  0  0  0
   25.8810   14.3540   21.7180 C   0  0  0  0  0  0  0  0  0  0  0  0
   26.6670   14.9030   20.7560 F   0  0  0  0  0  0  0  0  0  0  0  0
   28.5410   13.0080   24.1100 C   0  0  0  0  0  0  0  0  0  0  0  0
   28.3200   14.3700   25.2270 S   0  0  0  0  0  0  0  0  0  0  0  0
   29.3840   14.2760   26.2100 O   0  0  0  0  0  0  0  0  0  0  0  0
   26.9410   14.5680   25.5510 O   0  0  0  0  0  0  0  0  0  0  0  0
   28.8573   16.7926   25.9948 H   0  0  0  0  0  0  0  0  0  0  0  0
   29.8562   17.4075   24.6344 H   0  0  0  0  0  0  0  0  0  0  0  0
   28.0793   17.6705   24.6344 H   0  0  0  0  0  0  0  0  0  0  0  0
   29.8710   16.5880   21.3060 H   0  0  0  0  0  0  0  0  0  0  0  0
   29.8180   17.4050   22.8020 H   0  0  0  0  0  0  0  0  0  0  0  0
   28.5825   11.2867   22.4301 H   0  0  0  0  0  0  0  0  0  0  0  0
   27.4592   11.9348   21.1872 H   0  0  0  0  0  0  0  0  0  0  0  0
   29.1843   12.4355   21.1872 H   0  0  0  0  0  0  0  0  0  0  0  0
   26.0701   12.3808   24.4362 H   0  0  0  0  0  0  0  0  0  0  0  0
   23.1470   11.7060   24.4080 H   0  0  0  0  0  0  0  0  0  0  0  0
   20.8705   12.1326   25.0513 H   0  0  0  0  0  0  0  0  0  0  0  0
   19.2509   10.8001   26.4229 H   0  0  0  0  0  0  0  0  0  0  0  0
   21.9880   10.9645   29.7013 H   0  0  0  0  0  0  0  0  0  0  0  0
   22.6078   14.1957   22.6463 H   0  0  0  0  0  0  0  0  0  0  0  0
   24.0872   15.2357   20.9312 H   0  0  0  0  0  0  0  0  0  0  0  0
   28.0164   12.1265   24.5072 H   0  0  0  0  0  0  0  0  0  0  0  0
   29.6170   12.8006   24.0138 H   0  0  0  0  0  0  0  0  0  0  0  0
  1  2  1  0
  2  3  1  0
  3  4  1  0
  3  5  2  0
  5  6  1  0
  6  7  1  6
  6  8  1  0
  8  9  2  0
  9 10  1  0
 10 11  1  0
 11 12  1  0
 12 13  2  0
 12 14  1  0
 14 15  2  0
 15 16  1  0
 16 17  2  0
 17 18  1  0
 17 19  1  0
 19 20  2  0
 10 21  2  0
 21 22  1  0
 22 23  2  0
 23 24  1  0
  6 25  1  0
 25 26  1  0
 26 27  2  0
 26 28  2  0
 26  2  1  0
 23  8  1  0
 20 14  1  0
  1 29  1  0
  1 30  1  0
  1 31  1  0
  4 32  1  0
  4 33  1  0
  7 34  1  0
  7 35  1  0
  7 36  1  0
  9 37  1  0
 11 38  1  0
 15 39  1  0
 16 40  1  0
 19 41  1  0
 21 42  1  0
 22 43  1  0
 25 44  1  0
 25 45  1  0
M  END
>  <meeko>  (7)
{"is_sidechain": false}

>  <source_group>  (7)
BACE1-476

>  <source_system>  (7)
BACE1_verubecestat

>  <source_run>  (7)
alternate_476_seed1103_ex32

>  <source_seed>  (7)
1103

>  <vina_pose_rank>  (7)
7

>  <vina_affinity_kcal_mol>  (7)
-8.1310000000000002

>  <vina_rmsd_to_crystal_angstrom>  (7)
8.2048000000000005

$$$$
BACE1_verubecestat__alternate_476_seed1103_ex32__pose08
     RDKit          3D

 45 47  0  0  0  0  0  0  0  0999 V2000
   25.8600   16.1740   20.9540 C   0  0  0  0  0  0  0  0  0  0  0  0
   26.3640   14.7860   20.9730 N   0  0  0  0  0  0  0  0  0  0  0  0
   26.6390   14.0510   19.7990 C   0  0  0  0  0  0  0  0  0  0  0  0
   26.5440   14.7860   18.6480 N   0  0  0  0  0  0  0  0  0  0  0  0
   26.9770   12.7980   19.7940 N   0  0  0  0  0  0  0  0  0  0  0  0
   26.9830   12.0000   21.0190 C   0  0  2  0  0  0  0  0  0  0  0  0
   27.8630   10.8040   20.6440 C   0  0  0  0  0  0  0  0  0  0  0  0
   25.5940   11.4940   21.3760 C   0  0  0  0  0  0  0  0  0  0  0  0
   25.0830   11.6450   22.6640 C   0  0  0  0  0  0  0  0  0  0  0  0
   23.8310   11.1950   23.0170 C   0  0  0  0  0  0  0  0  0  0  0  0
   23.4360   11.4120   24.3440 N   0  0  0  0  0  0  0  0  0  0  0  0
   22.6560   12.4370   24.8490 C   0  0  0  0  0  0  0  0  0  0  0  0
   22.2830   13.4160   24.2150 O   0  0  0  0  0  0  0  0  0  0  0  0
   22.2370   12.2760   26.2620 C   0  0  0  0  0  0  0  0  0  0  0  0
   21.6530   11.0920   26.6790 C   0  0  0  0  0  0  0  0  0  0  0  0
   21.2790   10.9970   28.0080 C   0  0  0  0  0  0  0  0  0  0  0  0
   21.4970   12.0610   28.8620 C   0  0  0  0  0  0  0  0  0  0  0  0
   21.1430   12.0180   30.1570 F   0  0  0  0  0  0  0  0  0  0  0  0
   22.0790   13.1990   28.3520 C   0  0  0  0  0  0  0  0  0  0  0  0
   22.4480   13.3230   27.0660 N   0  0  0  0  0  0  0  0  0  0  0  0
   23.0130   10.5830   22.0760 C   0  0  0  0  0  0  0  0  0  0  0  0
   23.5050   10.4210   20.7930 C   0  0  0  0  0  0  0  0  0  0  0  0
   24.7760   10.8490   20.4620 C   0  0  0  0  0  0  0  0  0  0  0  0
   25.2470   10.6520   19.2040 F   0  0  0  0  0  0  0  0  0  0  0  0
   27.6970   12.7470   22.1230 C   0  0  0  0  0  0  0  0  0  0  0  0
   26.8240   14.2360   22.5380 S   0  0  0  0  0  0  0  0  0  0  0  0
   27.8140   15.1680   23.0470 O   0  0  0  0  0  0  0  0  0  0  0  0
   25.5790   13.9550   23.1820 O   0  0  0  0  0  0  0  0  0  0  0  0
   25.7303   16.5312   21.9863 H   0  0  0  0  0  0  0  0  0  0  0  0
   26.5814   16.8189   20.4308 H   0  0  0  0  0  0  0  0  0  0  0  0
   24.8929   16.2058   20.4308 H   0  0  0  0  0  0  0  0  0  0  0  0
   26.7180   14.3620   17.7770 H   0  0  0  0  0  0  0  0  0  0  0  0
   26.3030   15.7400   18.6910 H   0  0  0  0  0  0  0  0  0  0  0  0
   28.2242   10.3131   21.5597 H   0  0  0  0  0  0  0  0  0  0  0  0
   27.2750   10.0876   20.0515 H   0  0  0  0  0  0  0  0  0  0  0  0
   28.7219   11.1522   20.0515 H   0  0  0  0  0  0  0  0  0  0  0  0
   25.7024   12.1415   23.4255 H   0  0  0  0  0  0  0  0  0  0  0  0
   23.7540   10.7500   25.0000 H   0  0  0  0  0  0  0  0  0  0  0  0
   21.4923   10.2580   25.9800 H   0  0  0  0  0  0  0  0  0  0  0  0
   20.8091   10.0761   28.3837 H   0  0  0  0  0  0  0  0  0  0  0  0
   22.2504   14.0481   29.0299 H   0  0  0  0  0  0  0  0  0  0  0  0
   22.0035   10.2372   22.3430 H   0  0  0  0  0  0  0  0  0  0  0  0
   22.8757    9.9451   20.0265 H   0  0  0  0  0  0  0  0  0  0  0  0
   27.7581   12.1040   23.0134 H   0  0  0  0  0  0  0  0  0  0  0  0
   28.7060   13.0134   21.7752 H   0  0  0  0  0  0  0  0  0  0  0  0
  1  2  1  0
  2  3  1  0
  3  4  1  0
  3  5  2  0
  5  6  1  0
  6  7  1  6
  6  8  1  0
  8  9  2  0
  9 10  1  0
 10 11  1  0
 11 12  1  0
 12 13  2  0
 12 14  1  0
 14 15  2  0
 15 16  1  0
 16 17  2  0
 17 18  1  0
 17 19  1  0
 19 20  2  0
 10 21  2  0
 21 22  1  0
 22 23  2  0
 23 24  1  0
  6 25  1  0
 25 26  1  0
 26 27  2  0
 26 28  2  0
 26  2  1  0
 23  8  1  0
 20 14  1  0
  1 29  1  0
  1 30  1  0
  1 31  1  0
  4 32  1  0
  4 33  1  0
  7 34  1  0
  7 35  1  0
  7 36  1  0
  9 37  1  0
 11 38  1  0
 15 39  1  0
 16 40  1  0
 19 41  1  0
 21 42  1  0
 22 43  1  0
 25 44  1  0
 25 45  1  0
M  END
>  <meeko>  (8)
{"is_sidechain": false}

>  <source_group>  (8)
BACE1-476

>  <source_system>  (8)
BACE1_verubecestat

>  <source_run>  (8)
alternate_476_seed1103_ex32

>  <source_seed>  (8)
1103

>  <vina_pose_rank>  (8)
8

>  <vina_affinity_kcal_mol>  (8)
-7.9880000000000004

>  <vina_rmsd_to_crystal_angstrom>  (8)
7.2872000000000003

$$$$
BACE1_verubecestat__alternate_476_seed1103_ex32__pose09
     RDKit          3D

 45 47  0  0  0  0  0  0  0  0999 V2000
   25.1650    9.9120   20.7590 C   0  0  0  0  0  0  0  0  0  0  0  0
   25.2800   11.3810   20.8480 N   0  0  0  0  0  0  0  0  0  0  0  0
   26.4110   12.0940   20.3900 C   0  0  0  0  0  0  0  0  0  0  0  0
   27.3210   11.3210   19.7210 N   0  0  0  0  0  0  0  0  0  0  0  0
   26.5760   13.3700   20.5580 N   0  0  0  0  0  0  0  0  0  0  0  0
   25.6440   14.1660   21.3550 C   0  0  2  0  0  0  0  0  0  0  0  0
   25.9370   15.5970   20.8960 C   0  0  0  0  0  0  0  0  0  0  0  0
   25.9330   14.0610   22.8450 C   0  0  0  0  0  0  0  0  0  0  0  0
   24.8980   13.9990   23.7760 C   0  0  0  0  0  0  0  0  0  0  0  0
   25.1300   13.9060   25.1300 C   0  0  0  0  0  0  0  0  0  0  0  0
   24.0010   13.8490   25.9570 N   0  0  0  0  0  0  0  0  0  0  0  0
   23.2680   12.7370   26.3330 C   0  0  0  0  0  0  0  0  0  0  0  0
   23.4220   11.6090   25.8850 O   0  0  0  0  0  0  0  0  0  0  0  0
   22.2540   12.9740   27.3890 C   0  0  0  0  0  0  0  0  0  0  0  0
   22.5980   13.6740   28.5330 C   0  0  0  0  0  0  0  0  0  0  0  0
   21.6130   13.8650   29.4860 C   0  0  0  0  0  0  0  0  0  0  0  0
   20.3430   13.3640   29.2720 C   0  0  0  0  0  0  0  0  0  0  0  0
   19.3570   13.5160   30.1730 F   0  0  0  0  0  0  0  0  0  0  0  0
   20.1000   12.6760   28.1060 C   0  0  0  0  0  0  0  0  0  0  0  0
   21.0360   12.4700   27.1650 N   0  0  0  0  0  0  0  0  0  0  0  0
   26.4290   13.8470   25.6180 C   0  0  0  0  0  0  0  0  0  0  0  0
   27.4690   13.9100   24.7080 C   0  0  0  0  0  0  0  0  0  0  0  0
   27.2220   14.0350   23.3560 C   0  0  0  0  0  0  0  0  0  0  0  0
   28.2610   14.1250   22.4860 F   0  0  0  0  0  0  0  0  0  0  0  0
   24.2190   13.8550   20.9550 C   0  0  0  0  0  0  0  0  0  0  0  0
   23.8210   12.1640   21.3200 S   0  0  0  0  0  0  0  0  0  0  0  0
   22.7950   11.7660   20.3730 O   0  0  0  0  0  0  0  0  0  0  0  0
   23.7490   11.9310   22.7290 O   0  0  0  0  0  0  0  0  0  0  0  0
   25.1316    9.4848   21.7721 H   0  0  0  0  0  0  0  0  0  0  0  0
   24.2435    9.6484   20.2193 H   0  0  0  0  0  0  0  0  0  0  0  0
   26.0343    9.5082   20.2193 H   0  0  0  0  0  0  0  0  0  0  0  0
   28.1430   11.7280   19.3630 H   0  0  0  0  0  0  0  0  0  0  0  0
   27.1540   10.3590   19.5970 H   0  0  0  0  0  0  0  0  0  0  0  0
   26.0695   16.2443   21.7755 H   0  0  0  0  0  0  0  0  0  0  0  0
   26.8559   15.6072   20.2914 H   0  0  0  0  0  0  0  0  0  0  0  0
   25.0961   15.9676   20.2914 H   0  0  0  0  0  0  0  0  0  0  0  0
   23.8588   14.0253   23.4164 H   0  0  0  0  0  0  0  0  0  0  0  0
   23.6890   14.7110   26.3180 H   0  0  0  0  0  0  0  0  0  0  0  0
   23.6162   14.0637   28.6789 H   0  0  0  0  0  0  0  0  0  0  0  0
   21.8404   14.4142   30.4116 H   0  0  0  0  0  0  0  0  0  0  0  0
   19.0899   12.2750   27.9359 H   0  0  0  0  0  0  0  0  0  0  0  0
   26.6250   13.7530   26.6963 H   0  0  0  0  0  0  0  0  0  0  0  0
   28.5075   13.8598   25.0671 H   0  0  0  0  0  0  0  0  0  0  0  0
   23.5358   14.5148   21.5099 H   0  0  0  0  0  0  0  0  0  0  0  0
   24.1114   14.0184   19.8725 H   0  0  0  0  0  0  0  0  0  0  0  0
  1  2  1  0
  2  3  1  0
  3  4  1  0
  3  5  2  0
  5  6  1  0
  6  7  1  6
  6  8  1  0
  8  9  2  0
  9 10  1  0
 10 11  1  0
 11 12  1  0
 12 13  2  0
 12 14  1  0
 14 15  2  0
 15 16  1  0
 16 17  2  0
 17 18  1  0
 17 19  1  0
 19 20  2  0
 10 21  2  0
 21 22  1  0
 22 23  2  0
 23 24  1  0
  6 25  1  0
 25 26  1  0
 26 27  2  0
 26 28  2  0
 26  2  1  0
 23  8  1  0
 20 14  1  0
  1 29  1  0
  1 30  1  0
  1 31  1  0
  4 32  1  0
  4 33  1  0
  7 34  1  0
  7 35  1  0
  7 36  1  0
  9 37  1  0
 11 38  1  0
 15 39  1  0
 16 40  1  0
 19 41  1  0
 21 42  1  0
 22 43  1  0
 25 44  1  0
 25 45  1  0
M  END
>  <meeko>  (9)
{"is_sidechain": false}

>  <source_group>  (9)
BACE1-476

>  <source_system>  (9)
BACE1_verubecestat

>  <source_run>  (9)
alternate_476_seed1103_ex32

>  <source_seed>  (9)
1103

>  <vina_pose_rank>  (9)
9

>  <vina_affinity_kcal_mol>  (9)
-7.5209999999999999

>  <vina_rmsd_to_crystal_angstrom>  (9)
7.9451999999999998

$$$$
BACE1_verubecestat__alternate_476_seed1103_ex32__pose10
     RDKit          3D

 45 47  0  0  0  0  0  0  0  0999 V2000
   27.1960   10.4400   20.5820 C   0  0  0  0  0  0  0  0  0  0  0  0
   25.9970   11.2890   20.4300 N   0  0  0  0  0  0  0  0  0  0  0  0
   25.9900   12.4830   19.6750 C   0  0  0  0  0  0  0  0  0  0  0  0
   27.1450   12.7030   18.9730 N   0  0  0  0  0  0  0  0  0  0  0  0
   24.9800   13.2950   19.6190 N   0  0  0  0  0  0  0  0  0  0  0  0
   23.7900   13.0990   20.4460 C   0  0  2  0  0  0  0  0  0  0  0  0
   22.7350   13.9500   19.7340 C   0  0  0  0  0  0  0  0  0  0  0  0
   23.9810   13.6320   21.8570 C   0  0  0  0  0  0  0  0  0  0  0  0
   23.2160   13.1490   22.9180 C   0  0  0  0  0  0  0  0  0  0  0  0
   23.3650   13.6160   24.2050 C   0  0  0  0  0  0  0  0  0  0  0  0
   22.5360   13.0450   25.1790 N   0  0  0  0  0  0  0  0  0  0  0  0
   22.7190   11.8630   25.8740 C   0  0  0  0  0  0  0  0  0  0  0  0
   23.5980   11.0410   25.6480 O   0  0  0  0  0  0  0  0  0  0  0  0
   21.7730   11.6340   26.9940 C   0  0  0  0  0  0  0  0  0  0  0  0
   21.8330   12.4310   28.1230 C   0  0  0  0  0  0  0  0  0  0  0  0
   20.9280   12.1720   29.1370 C   0  0  0  0  0  0  0  0  0  0  0  0
   20.0090   11.1500   28.9950 C   0  0  0  0  0  0  0  0  0  0  0  0
   19.1180   10.8560   29.9570 F   0  0  0  0  0  0  0  0  0  0  0  0
   20.0320   10.4080   27.8370 C   0  0  0  0  0  0  0  0  0  0  0  0
   20.9020   10.6320   26.8380 N   0  0  0  0  0  0  0  0  0  0  0  0
   24.3170   14.5850   24.4960 C   0  0  0  0  0  0  0  0  0  0  0  0
   25.0830   15.0780   23.4540 C   0  0  0  0  0  0  0  0  0  0  0  0
   24.9000   14.6240   22.1630 C   0  0  0  0  0  0  0  0  0  0  0  0
   25.6440   15.1450   21.1540 F   0  0  0  0  0  0  0  0  0  0  0  0
   23.3300   11.6600   20.3610 C   0  0  0  0  0  0  0  0  0  0  0  0
   24.5560   10.5690   21.0380 S   0  0  0  0  0  0  0  0  0  0  0  0
   24.3940    9.2950   20.3620 O   0  0  0  0  0  0  0  0  0  0  0  0
   24.6700   10.7190   22.4550 O   0  0  0  0  0  0  0  0  0  0  0  0
   27.4065   10.2909   21.6513 H   0  0  0  0  0  0  0  0  0  0  0  0
   27.0182    9.4654   20.1039 H   0  0  0  0  0  0  0  0  0  0  0  0
   28.0562   10.9314   20.1039 H   0  0  0  0  0  0  0  0  0  0  0  0
   27.2360   13.5100   18.4160 H   0  0  0  0  0  0  0  0  0  0  0  0
   27.8840   12.0550   19.0250 H   0  0  0  0  0  0  0  0  0  0  0  0
   22.1070   14.4566   20.4816 H   0  0  0  0  0  0  0  0  0  0  0  0
   23.2339   14.7015   19.1044 H   0  0  0  0  0  0  0  0  0  0  0  0
   22.1061   13.3033   19.1044 H   0  0  0  0  0  0  0  0  0  0  0  0
   22.4674   12.3677   22.7202 H   0  0  0  0  0  0  0  0  0  0  0  0
   21.7200   13.5500   25.3970 H   0  0  0  0  0  0  0  0  0  0  0  0
   22.5726   13.2405   28.2113 H   0  0  0  0  0  0  0  0  0  0  0  0
   20.9401   12.7786   30.0545 H   0  0  0  0  0  0  0  0  0  0  0  0
   19.3031    9.5920   27.7234 H   0  0  0  0  0  0  0  0  0  0  0  0
   24.4578   14.9497   25.5242 H   0  0  0  0  0  0  0  0  0  0  0  0
   25.8480   15.8419   23.6572 H   0  0  0  0  0  0  0  0  0  0  0  0
   22.3934   11.5462   20.9265 H   0  0  0  0  0  0  0  0  0  0  0  0
   23.1710   11.4011   19.3038 H   0  0  0  0  0  0  0  0  0  0  0  0
  1  2  1  0
  2  3  1  0
  3  4  1  0
  3  5  2  0
  5  6  1  0
  6  7  1  6
  6  8  1  0
  8  9  2  0
  9 10  1  0
 10 11  1  0
 11 12  1  0
 12 13  2  0
 12 14  1  0
 14 15  2  0
 15 16  1  0
 16 17  2  0
 17 18  1  0
 17 19  1  0
 19 20  2  0
 10 21  2  0
 21 22  1  0
 22 23  2  0
 23 24  1  0
  6 25  1  0
 25 26  1  0
 26 27  2  0
 26 28  2  0
 26  2  1  0
 23  8  1  0
 20 14  1  0
  1 29  1  0
  1 30  1  0
  1 31  1  0
  4 32  1  0
  4 33  1  0
  7 34  1  0
  7 35  1  0
  7 36  1  0
  9 37  1  0
 11 38  1  0
 15 39  1  0
 16 40  1  0
 19 41  1  0
 21 42  1  0
 22 43  1  0
 25 44  1  0
 25 45  1  0
M  END
>  <meeko>  (10)
{"is_sidechain": false}

>  <source_group>  (10)
BACE1-476

>  <source_system>  (10)
BACE1_verubecestat

>  <source_run>  (10)
alternate_476_seed1103_ex32

>  <source_seed>  (10)
1103

>  <vina_pose_rank>  (10)
10

>  <vina_affinity_kcal_mol>  (10)
-7.4329999999999998

>  <vina_rmsd_to_crystal_angstrom>  (10)
7.5251000000000001

$$$$
BACE1_verubecestat__alternate_476_seed1103_ex32__pose11
     RDKit          3D

 45 47  0  0  0  0  0  0  0  0999 V2000
   28.9270   10.1970   21.6950 C   0  0  0  0  0  0  0  0  0  0  0  0
   28.5250   11.6160   21.6400 N   0  0  0  0  0  0  0  0  0  0  0  0
   29.4360   12.6820   21.8160 C   0  0  0  0  0  0  0  0  0  0  0  0
   30.7450   12.2870   21.8900 N   0  0  0  0  0  0  0  0  0  0  0  0
   29.0840   13.9290   21.8780 N   0  0  0  0  0  0  0  0  0  0  0  0
   27.6780   14.3310   21.8940 C   0  0  2  0  0  0  0  0  0  0  0  0
   27.7400   15.8090   21.4980 C   0  0  0  0  0  0  0  0  0  0  0  0
   27.0680   14.2190   23.2820 C   0  0  0  0  0  0  0  0  0  0  0  0
   25.7460   13.8140   23.4570 C   0  0  0  0  0  0  0  0  0  0  0  0
   25.1670   13.7060   24.7010 C   0  0  0  0  0  0  0  0  0  0  0  0
   23.8310   13.2860   24.7370 N   0  0  0  0  0  0  0  0  0  0  0  0
   23.3370   12.0210   25.0010 C   0  0  0  0  0  0  0  0  0  0  0  0
   24.0180   11.0100   25.1230 O   0  0  0  0  0  0  0  0  0  0  0  0
   21.8670   11.9380   25.1760 C   0  0  0  0  0  0  0  0  0  0  0  0
   21.2670   10.7130   25.4100 C   0  0  0  0  0  0  0  0  0  0  0  0
   19.8920   10.6940   25.5640 C   0  0  0  0  0  0  0  0  0  0  0  0
   19.1740   11.8710   25.4830 C   0  0  0  0  0  0  0  0  0  0  0  0
   17.8370   11.9010   25.6160 F   0  0  0  0  0  0  0  0  0  0  0  0
   19.8600   13.0400   25.2410 C   0  0  0  0  0  0  0  0  0  0  0  0
   21.1930   13.0890   25.0820 N   0  0  0  0  0  0  0  0  0  0  0  0
   25.9030   13.9830   25.8460 C   0  0  0  0  0  0  0  0  0  0  0  0
   27.2170   14.3900   25.6910 C   0  0  0  0  0  0  0  0  0  0  0  0
   27.7750   14.5240   24.4350 C   0  0  0  0  0  0  0  0  0  0  0  0
   29.0570   14.9530   24.3100 F   0  0  0  0  0  0  0  0  0  0  0  0
   26.9210   13.6110   20.8010 C   0  0  0  0  0  0  0  0  0  0  0  0
   26.9110   11.8600   21.0930 S   0  0  0  0  0  0  0  0  0  0  0  0
   26.7970   11.2240   19.7930 O   0  0  0  0  0  0  0  0  0  0  0  0
   26.1100   11.5190   22.2280 O   0  0  0  0  0  0  0  0  0  0  0  0
   29.0163    9.8817   22.7450 H   0  0  0  0  0  0  0  0  0  0  0  0
   28.1680    9.5811   21.1905 H   0  0  0  0  0  0  0  0  0  0  0  0
   29.8963   10.0707   21.1905 H   0  0  0  0  0  0  0  0  0  0  0  0
   31.4550   12.9580   22.0120 H   0  0  0  0  0  0  0  0  0  0  0  0
   30.9760   11.3330   21.8200 H   0  0  0  0  0  0  0  0  0  0  0  0
   27.7661   16.4308   22.4050 H   0  0  0  0  0  0  0  0  0  0  0  0
   28.6466   15.9913   20.9023 H   0  0  0  0  0  0  0  0  0  0  0  0
   26.8519   16.0666   20.9023 H   0  0  0  0  0  0  0  0  0  0  0  0
   25.1436   13.5719   22.5690 H   0  0  0  0  0  0  0  0  0  0  0  0
   23.1570   13.9800   24.5520 H   0  0  0  0  0  0  0  0  0  0  0  0
   21.8609    9.7891   25.4713 H   0  0  0  0  0  0  0  0  0  0  0  0
   19.3717    9.7430   25.7506 H   0  0  0  0  0  0  0  0  0  0  0  0
   19.2896   13.9782   25.1747 H   0  0  0  0  0  0  0  0  0  0  0  0
   25.4553   13.8820   26.8457 H   0  0  0  0  0  0  0  0  0  0  0  0
   27.8252   14.6098   26.5808 H   0  0  0  0  0  0  0  0  0  0  0  0
   25.8846   13.9789   20.7769 H   0  0  0  0  0  0  0  0  0  0  0  0
   27.4178   13.8062   19.8392 H   0  0  0  0  0  0  0  0  0  0  0  0
  1  2  1  0
  2  3  1  0
  3  4  1  0
  3  5  2  0
  5  6  1  0
  6  7  1  6
  6  8  1  0
  8  9  2  0
  9 10  1  0
 10 11  1  0
 11 12  1  0
 12 13  2  0
 12 14  1  0
 14 15  2  0
 15 16  1  0
 16 17  2  0
 17 18  1  0
 17 19  1  0
 19 20  2  0
 10 21  2  0
 21 22  1  0
 22 23  2  0
 23 24  1  0
  6 25  1  0
 25 26  1  0
 26 27  2  0
 26 28  2  0
 26  2  1  0
 23  8  1  0
 20 14  1  0
  1 29  1  0
  1 30  1  0
  1 31  1  0
  4 32  1  0
  4 33  1  0
  7 34  1  0
  7 35  1  0
  7 36  1  0
  9 37  1  0
 11 38  1  0
 15 39  1  0
 16 40  1  0
 19 41  1  0
 21 42  1  0
 22 43  1  0
 25 44  1  0
 25 45  1  0
M  END
>  <meeko>  (11)
{"is_sidechain": false}

>  <source_group>  (11)
BACE1-476

>  <source_system>  (11)
BACE1_verubecestat

>  <source_run>  (11)
alternate_476_seed1103_ex32

>  <source_seed>  (11)
1103

>  <vina_pose_rank>  (11)
11

>  <vina_affinity_kcal_mol>  (11)
-7.2750000000000004

>  <vina_rmsd_to_crystal_angstrom>  (11)
8.3609000000000009

$$$$
BACE1_verubecestat__alternate_476_seed1103_ex32__pose12
     RDKit          3D

 45 47  0  0  0  0  0  0  0  0999 V2000
   26.3060   16.0170   20.0720 C   0  0  0  0  0  0  0  0  0  0  0  0
   27.1980   15.0460   20.7360 N   0  0  0  0  0  0  0  0  0  0  0  0
   27.0020   13.6490   20.6680 C   0  0  0  0  0  0  0  0  0  0  0  0
   26.0060   13.2690   19.8090 N   0  0  0  0  0  0  0  0  0  0  0  0
   27.7100   12.7870   21.3320 N   0  0  0  0  0  0  0  0  0  0  0  0
   28.7060   13.2080   22.3160 C   0  0  2  0  0  0  0  0  0  0  0  0
   29.5800   11.9600   22.4730 C   0  0  0  0  0  0  0  0  0  0  0  0
   28.0760   13.5380   23.6600 C   0  0  0  0  0  0  0  0  0  0  0  0
   26.7620   13.1730   23.9490 C   0  0  0  0  0  0  0  0  0  0  0  0
   26.1660   13.4610   25.1560 C   0  0  0  0  0  0  0  0  0  0  0  0
   24.8410   13.0360   25.3190 N   0  0  0  0  0  0  0  0  0  0  0  0
   23.7470   13.3140   24.5190 C   0  0  0  0  0  0  0  0  0  0  0  0
   23.7400   14.1050   23.5850 O   0  0  0  0  0  0  0  0  0  0  0  0
   22.5190   12.5440   24.8360 C   0  0  0  0  0  0  0  0  0  0  0  0
   22.5340   11.1620   24.7700 C   0  0  0  0  0  0  0  0  0  0  0  0
   21.3610   10.4940   25.0740 C   0  0  0  0  0  0  0  0  0  0  0  0
   20.2340   11.2110   25.4290 C   0  0  0  0  0  0  0  0  0  0  0  0
   19.0700   10.6070   25.7230 F   0  0  0  0  0  0  0  0  0  0  0  0
   20.3160   12.5840   25.4610 C   0  0  0  0  0  0  0  0  0  0  0  0
   21.4390   13.2600   25.1660 N   0  0  0  0  0  0  0  0  0  0  0  0
   26.8760   14.1200   26.1510 C   0  0  0  0  0  0  0  0  0  0  0  0
   28.1810   14.4930   25.8810 C   0  0  0  0  0  0  0  0  0  0  0  0
   28.7560   14.2250   24.6540 C   0  0  0  0  0  0  0  0  0  0  0  0
   30.0280   14.6290   24.4040 F   0  0  0  0  0  0  0  0  0  0  0  0
   29.5840   14.2940   21.7350 C   0  0  0  0  0  0  0  0  0  0  0  0
   28.6300   15.7490   21.3820 S   0  0  0  0  0  0  0  0  0  0  0  0
   29.3040   16.4310   20.2920 O   0  0  0  0  0  0  0  0  0  0  0  0
   28.1860   16.3910   22.5800 O   0  0  0  0  0  0  0  0  0  0  0  0
   25.7689   16.6017   20.8334 H   0  0  0  0  0  0  0  0  0  0  0  0
   26.9037   16.6940   19.4439 H   0  0  0  0  0  0  0  0  0  0  0  0
   25.5808   15.4788   19.4439 H   0  0  0  0  0  0  0  0  0  0  0  0
   25.7940   12.3140   19.6930 H   0  0  0  0  0  0  0  0  0  0  0  0
   25.5010   13.9500   19.3080 H   0  0  0  0  0  0  0  0  0  0  0  0
   29.7282   11.7483   23.5422 H   0  0  0  0  0  0  0  0  0  0  0  0
   29.0840   11.1025   21.9948 H   0  0  0  0  0  0  0  0  0  0  0  0
   30.5554   12.1329   21.9948 H   0  0  0  0  0  0  0  0  0  0  0  0
   26.1806   12.6357   23.1853 H   0  0  0  0  0  0  0  0  0  0  0  0
   24.6670   12.4650   26.1020 H   0  0  0  0  0  0  0  0  0  0  0  0
   23.4449   10.6145   24.4863 H   0  0  0  0  0  0  0  0  0  0  0  0
   21.3255    9.3953   25.0332 H   0  0  0  0  0  0  0  0  0  0  0  0
   19.4191   13.1557   25.7416 H   0  0  0  0  0  0  0  0  0  0  0  0
   26.4146   14.3391   27.1252 H   0  0  0  0  0  0  0  0  0  0  0  0
   28.7684   15.0100   26.6541 H   0  0  0  0  0  0  0  0  0  0  0  0
   30.3732   14.5462   22.4586 H   0  0  0  0  0  0  0  0  0  0  0  0
   30.0288   13.9265   20.7985 H   0  0  0  0  0  0  0  0  0  0  0  0
  1  2  1  0
  2  3  1  0
  3  4  1  0
  3  5  2  0
  5  6  1  0
  6  7  1  1
  6  8  1  0
  8  9  2  0
  9 10  1  0
 10 11  1  0
 11 12  1  0
 12 13  2  0
 12 14  1  0
 14 15  2  0
 15 16  1  0
 16 17  2  0
 17 18  1  0
 17 19  1  0
 19 20  2  0
 10 21  2  0
 21 22  1  0
 22 23  2  0
 23 24  1  0
  6 25  1  0
 25 26  1  0
 26 27  2  0
 26 28  2  0
 26  2  1  0
 23  8  1  0
 20 14  1  0
  1 29  1  0
  1 30  1  0
  1 31  1  0
  4 32  1  0
  4 33  1  0
  7 34  1  0
  7 35  1  0
  7 36  1  0
  9 37  1  0
 11 38  1  0
 15 39  1  0
 16 40  1  0
 19 41  1  0
 21 42  1  0
 22 43  1  0
 25 44  1  0
 25 45  1  0
M  END
>  <meeko>  (12)
{"is_sidechain": false}

>  <source_group>  (12)
BACE1-476

>  <source_system>  (12)
BACE1_verubecestat

>  <source_run>  (12)
alternate_476_seed1103_ex32

>  <source_seed>  (12)
1103

>  <vina_pose_rank>  (12)
12

>  <vina_affinity_kcal_mol>  (12)
-7.1029999999999998

>  <vina_rmsd_to_crystal_angstrom>  (12)
8.3552

$$$$
BACE1_verubecestat__alternate_476_seed1103_ex32__pose13
     RDKit          3D

 45 47  0  0  0  0  0  0  0  0999 V2000
   15.1610   15.0410   27.7580 C   0  0  0  0  0  0  0  0  0  0  0  0
   15.7040   13.9090   26.9810 N   0  0  0  0  0  0  0  0  0  0  0  0
   15.4830   12.5580   27.3310 C   0  0  0  0  0  0  0  0  0  0  0  0
   14.5990   12.3890   28.3620 N   0  0  0  0  0  0  0  0  0  0  0  0
   16.0400   11.5560   26.7240 N   0  0  0  0  0  0  0  0  0  0  0  0
   17.0530   11.7510   25.6880 C   0  0  2  0  0  0  0  0  0  0  0  0
   17.0620   10.4050   24.9590 C   0  0  0  0  0  0  0  0  0  0  0  0
   18.4330   11.9980   26.2790 C   0  0  0  0  0  0  0  0  0  0  0  0
   19.4850   12.4500   25.4850 C   0  0  0  0  0  0  0  0  0  0  0  0
   20.7440   12.6790   25.9910 C   0  0  0  0  0  0  0  0  0  0  0  0
   21.7120   13.1350   25.0870 N   0  0  0  0  0  0  0  0  0  0  0  0
   22.7140   12.4100   24.4660 C   0  0  0  0  0  0  0  0  0  0  0  0
   23.0000   11.2460   24.7160 O   0  0  0  0  0  0  0  0  0  0  0  0
   23.4480   13.1310   23.3980 C   0  0  0  0  0  0  0  0  0  0  0  0
   23.4040   12.6660   22.0950 C   0  0  0  0  0  0  0  0  0  0  0  0
   24.1090   13.3760   21.1390 C   0  0  0  0  0  0  0  0  0  0  0  0
   24.8180   14.5040   21.5040 C   0  0  0  0  0  0  0  0  0  0  0  0
   25.5250   15.2200   20.6130 F   0  0  0  0  0  0  0  0  0  0  0  0
   24.8070   14.8840   22.8270 C   0  0  0  0  0  0  0  0  0  0  0  0
   24.1370   14.2120   23.7780 N   0  0  0  0  0  0  0  0  0  0  0  0
   21.0050   12.4840   27.3420 C   0  0  0  0  0  0  0  0  0  0  0  0
   19.9730   12.0330   28.1450 C   0  0  0  0  0  0  0  0  0  0  0  0
   18.7230   11.7760   27.6160 C   0  0  0  0  0  0  0  0  0  0  0  0
   17.7350   11.3050   28.4200 F   0  0  0  0  0  0  0  0  0  0  0  0
   16.5860   12.7910   24.6950 C   0  0  0  0  0  0  0  0  0  0  0  0
   16.4070   14.3730   25.4800 S   0  0  0  0  0  0  0  0  0  0  0  0
   15.3920   15.0940   24.7330 O   0  0  0  0  0  0  0  0  0  0  0  0
   17.6730   14.9240   25.8510 O   0  0  0  0  0  0  0  0  0  0  0  0
   15.2622   14.8300   28.8328 H   0  0  0  0  0  0  0  0  0  0  0  0
   15.7179   15.9566   27.5100 H   0  0  0  0  0  0  0  0  0  0  0  0
   14.0983   15.1797   27.5100 H   0  0  0  0  0  0  0  0  0  0  0  0
   14.3800   11.4830   28.6790 H   0  0  0  0  0  0  0  0  0  0  0  0
   14.1820   13.1730   28.7870 H   0  0  0  0  0  0  0  0  0  0  0  0
   17.0675    9.5887   25.6963 H   0  0  0  0  0  0  0  0  0  0  0  0
   16.1644   10.3235   24.3284 H   0  0  0  0  0  0  0  0  0  0  0  0
   17.9606   10.3355   24.3284 H   0  0  0  0  0  0  0  0  0  0  0  0
   19.3025   12.6302   24.4153 H   0  0  0  0  0  0  0  0  0  0  0  0
   21.6740   14.0930   24.8630 H   0  0  0  0  0  0  0  0  0  0  0  0
   22.8302   11.7659   21.8294 H   0  0  0  0  0  0  0  0  0  0  0  0
   24.1048   13.0429   20.0907 H   0  0  0  0  0  0  0  0  0  0  0  0
   25.3736   15.7803   23.1194 H   0  0  0  0  0  0  0  0  0  0  0  0
   22.0028   12.6824   27.7604 H   0  0  0  0  0  0  0  0  0  0  0  0
   20.1500   11.8769   29.2194 H   0  0  0  0  0  0  0  0  0  0  0  0
   17.3240   12.8722   23.8833 H   0  0  0  0  0  0  0  0  0  0  0  0
   15.6092   12.4830   24.2937 H   0  0  0  0  0  0  0  0  0  0  0  0
  1  2  1  0
  2  3  1  0
  3  4  1  0
  3  5  2  0
  5  6  1  0
  6  7  1  6
  6  8  1  0
  8  9  2  0
  9 10  1  0
 10 11  1  0
 11 12  1  0
 12 13  2  0
 12 14  1  0
 14 15  2  0
 15 16  1  0
 16 17  2  0
 17 18  1  0
 17 19  1  0
 19 20  2  0
 10 21  2  0
 21 22  1  0
 22 23  2  0
 23 24  1  0
  6 25  1  0
 25 26  1  0
 26 27  2  0
 26 28  2  0
 26  2  1  0
 23  8  1  0
 20 14  1  0
  1 29  1  0
  1 30  1  0
  1 31  1  0
  4 32  1  0
  4 33  1  0
  7 34  1  0
  7 35  1  0
  7 36  1  0
  9 37  1  0
 11 38  1  0
 15 39  1  0
 16 40  1  0
 19 41  1  0
 21 42  1  0
 22 43  1  0
 25 44  1  0
 25 45  1  0
M  END
>  <meeko>  (13)
{"is_sidechain": false}

>  <source_group>  (13)
BACE1-476

>  <source_system>  (13)
BACE1_verubecestat

>  <source_run>  (13)
alternate_476_seed1103_ex32

>  <source_seed>  (13)
1103

>  <vina_pose_rank>  (13)
13

>  <vina_affinity_kcal_mol>  (13)
-7.0359999999999996

>  <vina_rmsd_to_crystal_angstrom>  (13)
7.6593999999999998

$$$$
BACE1_verubecestat__alternate_476_seed1103_ex32__pose14
     RDKit          3D

 45 47  0  0  0  0  0  0  0  0999 V2000
   27.2620   13.7300   25.2430 C   0  0  0  0  0  0  0  0  0  0  0  0
   27.0000   13.3940   23.8300 N   0  0  0  0  0  0  0  0  0  0  0  0
   27.9110   12.6710   23.0280 C   0  0  0  0  0  0  0  0  0  0  0  0
   28.9860   12.1770   23.7170 N   0  0  0  0  0  0  0  0  0  0  0  0
   27.7460   12.4610   21.7580 N   0  0  0  0  0  0  0  0  0  0  0  0
   26.6450   13.0720   21.0160 C   0  0  2  0  0  0  0  0  0  0  0  0
   26.5630   12.2090   19.7530 C   0  0  0  0  0  0  0  0  0  0  0  0
   26.9550   14.5050   20.6110 C   0  0  0  0  0  0  0  0  0  0  0  0
   28.1620   15.1070   20.9630 C   0  0  0  0  0  0  0  0  0  0  0  0
   28.4680   16.4030   20.6130 C   0  0  0  0  0  0  0  0  0  0  0  0
   29.7160   16.8870   21.0280 N   0  0  0  0  0  0  0  0  0  0  0  0
   30.1490   17.1480   22.3150 C   0  0  0  0  0  0  0  0  0  0  0  0
   29.4440   17.1160   23.3160 O   0  0  0  0  0  0  0  0  0  0  0  0
   31.5950   17.4520   22.4470 C   0  0  0  0  0  0  0  0  0  0  0  0
   32.1540   17.6180   23.7030 C   0  0  0  0  0  0  0  0  0  0  0  0
   33.5070   17.9020   23.7670 C   0  0  0  0  0  0  0  0  0  0  0  0
   34.2440   18.0060   22.6040 C   0  0  0  0  0  0  0  0  0  0  0  0
   35.5580   18.2890   22.6160 F   0  0  0  0  0  0  0  0  0  0  0  0
   33.5970   17.8300   21.4020 C   0  0  0  0  0  0  0  0  0  0  0  0
   32.2850   17.5590   21.3070 N   0  0  0  0  0  0  0  0  0  0  0  0
   27.5750   17.1590   19.8640 C   0  0  0  0  0  0  0  0  0  0  0  0
   26.3700   16.5780   19.5090 C   0  0  0  0  0  0  0  0  0  0  0  0
   26.0630   15.2880   19.8940 C   0  0  0  0  0  0  0  0  0  0  0  0
   24.8620   14.7520   19.5580 F   0  0  0  0  0  0  0  0  0  0  0  0
   25.3450   12.8850   21.7660 C   0  0  0  0  0  0  0  0  0  0  0  0
   25.3910   13.7380   23.3220 S   0  0  0  0  0  0  0  0  0  0  0  0
   24.4970   13.0220   24.2140 O   0  0  0  0  0  0  0  0  0  0  0  0
   25.3840   15.1570   23.1460 O   0  0  0  0  0  0  0  0  0  0  0  0
   26.7165   13.0305   25.8935 H   0  0  0  0  0  0  0  0  0  0  0  0
   28.3406   13.6527   25.4444 H   0  0  0  0  0  0  0  0  0  0  0  0
   26.9241   14.7573   25.4444 H   0  0  0  0  0  0  0  0  0  0  0  0
   29.6770   11.6580   23.2450 H   0  0  0  0  0  0  0  0  0  0  0  0
   29.0690   12.3410   24.6840 H   0  0  0  0  0  0  0  0  0  0  0  0
   26.4625   11.1512   20.0376 H   0  0  0  0  0  0  0  0  0  0  0  0
   25.6897   12.5130   19.1572 H   0  0  0  0  0  0  0  0  0  0  0  0
   27.4779   12.3431   19.1572 H   0  0  0  0  0  0  0  0  0  0  0  0
   28.8959   14.5261   21.5408 H   0  0  0  0  0  0  0  0  0  0  0  0
   30.3670   17.0630   20.3110 H   0  0  0  0  0  0  0  0  0  0  0  0
   31.5458   17.5276   24.6151 H   0  0  0  0  0  0  0  0  0  0  0  0
   33.9944   18.0446   24.7427 H   0  0  0  0  0  0  0  0  0  0  0  0
   34.1825   17.9154   20.4747 H   0  0  0  0  0  0  0  0  0  0  0  0
   27.8183   18.1884   19.5622 H   0  0  0  0  0  0  0  0  0  0  0  0
   25.6465   17.1521   18.9116 H   0  0  0  0  0  0  0  0  0  0  0  0
   24.5179   13.2833   21.1600 H   0  0  0  0  0  0  0  0  0  0  0  0
   25.1967   11.8116   21.9551 H   0  0  0  0  0  0  0  0  0  0  0  0
  1  2  1  0
  2  3  1  0
  3  4  1  0
  3  5  2  0
  5  6  1  0
  6  7  1  6
  6  8  1  0
  8  9  2  0
  9 10  1  0
 10 11  1  0
 11 12  1  0
 12 13  2  0
 12 14  1  0
 14 15  2  0
 15 16  1  0
 16 17  2  0
 17 18  1  0
 17 19  1  0
 19 20  2  0
 10 21  2  0
 21 22  1  0
 22 23  2  0
 23 24  1  0
  6 25  1  0
 25 26  1  0
 26 27  2  0
 26 28  2  0
 26  2  1  0
 23  8  1  0
 20 14  1  0
  1 29  1  0
  1 30  1  0
  1 31  1  0
  4 32  1  0
  4 33  1  0
  7 34  1  0
  7 35  1  0
  7 36  1  0
  9 37  1  0
 11 38  1  0
 15 39  1  0
 16 40  1  0
 19 41  1  0
 21 42  1  0
 22 43  1  0
 25 44  1  0
 25 45  1  0
M  END
>  <meeko>  (14)
{"is_sidechain": false}

>  <source_group>  (14)
BACE1-476

>  <source_system>  (14)
BACE1_verubecestat

>  <source_run>  (14)
alternate_476_seed1103_ex32

>  <source_seed>  (14)
1103

>  <vina_pose_rank>  (14)
14

>  <vina_affinity_kcal_mol>  (14)
-7.0039999999999996

>  <vina_rmsd_to_crystal_angstrom>  (14)
6.9516

$$$$
BACE1_verubecestat__alternate_476_seed1103_ex32__pose15
     RDKit          3D

 45 47  0  0  0  0  0  0  0  0999 V2000
   25.2760   11.6700   18.8630 C   0  0  0  0  0  0  0  0  0  0  0  0
   24.6580   12.1460   20.1160 N   0  0  0  0  0  0  0  0  0  0  0  0
   24.0540   13.4170   20.2430 C   0  0  0  0  0  0  0  0  0  0  0  0
   23.9570   14.1060   19.0640 N   0  0  0  0  0  0  0  0  0  0  0  0
   23.6040   13.8930   21.3620 N   0  0  0  0  0  0  0  0  0  0  0  0
   23.7970   13.1910   22.6290 C   0  0  2  0  0  0  0  0  0  0  0  0
   22.7440   13.8280   23.5390 C   0  0  0  0  0  0  0  0  0  0  0  0
   25.1750   13.4470   23.2200 C   0  0  0  0  0  0  0  0  0  0  0  0
   26.1570   14.1180   22.4920 C   0  0  0  0  0  0  0  0  0  0  0  0
   27.4130   14.3620   22.9990 C   0  0  0  0  0  0  0  0  0  0  0  0
   28.3050   15.0480   22.1650 N   0  0  0  0  0  0  0  0  0  0  0  0
   29.1050   16.1330   22.4750 C   0  0  0  0  0  0  0  0  0  0  0  0
   29.0640   16.7620   23.5240 O   0  0  0  0  0  0  0  0  0  0  0  0
   30.0990   16.5040   21.4370 C   0  0  0  0  0  0  0  0  0  0  0  0
   29.6750   17.0610   20.2430 C   0  0  0  0  0  0  0  0  0  0  0  0
   30.6440   17.3860   19.3100 C   0  0  0  0  0  0  0  0  0  0  0  0
   31.9770   17.1530   19.5930 C   0  0  0  0  0  0  0  0  0  0  0  0
   32.9520   17.4440   18.7150 F   0  0  0  0  0  0  0  0  0  0  0  0
   32.2980   16.5900   20.8070 C   0  0  0  0  0  0  0  0  0  0  0  0
   31.3800   16.2590   21.7290 N   0  0  0  0  0  0  0  0  0  0  0  0
   27.7410   13.9580   24.2870 C   0  0  0  0  0  0  0  0  0  0  0  0
   26.7810   13.2870   25.0230 C   0  0  0  0  0  0  0  0  0  0  0  0
   25.5350   13.0220   24.4890 C   0  0  0  0  0  0  0  0  0  0  0  0
   24.6200   12.3360   25.2210 F   0  0  0  0  0  0  0  0  0  0  0  0
   23.4280   11.7320   22.4760 C   0  0  0  0  0  0  0  0  0  0  0  0
   24.5120   10.9280   21.3240 S   0  0  0  0  0  0  0  0  0  0  0  0
   23.7580    9.8330   20.7410 O   0  0  0  0  0  0  0  0  0  0  0  0
   25.8370   10.8030   21.8460 O   0  0  0  0  0  0  0  0  0  0  0  0
   26.1270   11.0145   19.0998 H   0  0  0  0  0  0  0  0  0  0  0  0
   24.5327   11.1088   18.2777 H   0  0  0  0  0  0  0  0  0  0  0  0
   25.6288   12.5319   18.2777 H   0  0  0  0  0  0  0  0  0  0  0  0
   23.5510   15.0020   19.0490 H   0  0  0  0  0  0  0  0  0  0  0  0
   24.2940   13.7050   18.2300 H   0  0  0  0  0  0  0  0  0  0  0  0
   23.0193   13.6614   24.5909 H   0  0  0  0  0  0  0  0  0  0  0  0
   22.6928   14.9086   23.3401 H   0  0  0  0  0  0  0  0  0  0  0  0
   21.7631   13.3717   23.3401 H   0  0  0  0  0  0  0  0  0  0  0  0
   25.9191   14.4649   21.4756 H   0  0  0  0  0  0  0  0  0  0  0  0
   28.3700   14.7160   21.2410 H   0  0  0  0  0  0  0  0  0  0  0  0
   28.6080   17.2387   20.0432 H   0  0  0  0  0  0  0  0  0  0  0  0
   30.3543   17.8286   18.3456 H   0  0  0  0  0  0  0  0  0  0  0  0
   33.3580   16.4021   21.0329 H   0  0  0  0  0  0  0  0  0  0  0  0
   28.7352   14.1656   24.7094 H   0  0  0  0  0  0  0  0  0  0  0  0
   27.0130   12.9601   26.0473 H   0  0  0  0  0  0  0  0  0  0  0  0
   23.5078   11.2349   23.4540 H   0  0  0  0  0  0  0  0  0  0  0  0
   22.3975   11.6658   22.0970 H   0  0  0  0  0  0  0  0  0  0  0  0
  1  2  1  0
  2  3  1  0
  3  4  1  0
  3  5  2  0
  5  6  1  0
  6  7  1  1
  6  8  1  0
  8  9  2  0
  9 10  1  0
 10 11  1  0
 11 12  1  0
 12 13  2  0
 12 14  1  0
 14 15  2  0
 15 16  1  0
 16 17  2  0
 17 18  1  0
 17 19  1  0
 19 20  2  0
 10 21  2  0
 21 22  1  0
 22 23  2  0
 23 24  1  0
  6 25  1  0
 25 26  1  0
 26 27  2  0
 26 28  2  0
 26  2  1  0
 23  8  1  0
 20 14  1  0
  1 29  1  0
  1 30  1  0
  1 31  1  0
  4 32  1  0
  4 33  1  0
  7 34  1  0
  7 35  1  0
  7 36  1  0
  9 37  1  0
 11 38  1  0
 15 39  1  0
 16 40  1  0
 19 41  1  0
 21 42  1  0
 22 43  1  0
 25 44  1  0
 25 45  1  0
M  END
>  <meeko>  (15)
{"is_sidechain": false}

>  <source_group>  (15)
BACE1-476

>  <source_system>  (15)
BACE1_verubecestat

>  <source_run>  (15)
alternate_476_seed1103_ex32

>  <source_seed>  (15)
1103

>  <vina_pose_rank>  (15)
15

>  <vina_affinity_kcal_mol>  (15)
-6.9580000000000002

>  <vina_rmsd_to_crystal_angstrom>  (15)
6.399

$$$$
BACE1_verubecestat__alternate_476_seed1103_ex32__pose16
     RDKit          3D

 45 47  0  0  0  0  0  0  0  0999 V2000
   14.5560   13.8570   24.3720 C   0  0  0  0  0  0  0  0  0  0  0  0
   15.2390   14.0150   25.6720 N   0  0  0  0  0  0  0  0  0  0  0  0
   16.0840   15.1070   25.9700 C   0  0  0  0  0  0  0  0  0  0  0  0
   16.0940   16.0810   25.0070 N   0  0  0  0  0  0  0  0  0  0  0  0
   16.7750   15.2070   27.0630 N   0  0  0  0  0  0  0  0  0  0  0  0
   16.8300   14.1190   28.0390 C   0  0  2  0  0  0  0  0  0  0  0  0
   17.3220   14.8220   29.3080 C   0  0  0  0  0  0  0  0  0  0  0  0
   17.8390   13.0510   27.6470 C   0  0  0  0  0  0  0  0  0  0  0  0
   18.7320   13.2550   26.5960 C   0  0  0  0  0  0  0  0  0  0  0  0
   19.6530   12.3050   26.2180 C   0  0  0  0  0  0  0  0  0  0  0  0
   20.4940   12.6370   25.1480 N   0  0  0  0  0  0  0  0  0  0  0  0
   21.8380   12.9650   25.1840 C   0  0  0  0  0  0  0  0  0  0  0  0
   22.4920   13.1450   26.2020 O   0  0  0  0  0  0  0  0  0  0  0  0
   22.5020   13.0600   23.8610 C   0  0  0  0  0  0  0  0  0  0  0  0
   22.9130   11.9100   23.2090 C   0  0  0  0  0  0  0  0  0  0  0  0
   23.5290   12.0580   21.9790 C   0  0  0  0  0  0  0  0  0  0  0  0
   23.7080   13.3200   21.4460 C   0  0  0  0  0  0  0  0  0  0  0  0
   24.3090   13.5130   20.2600 F   0  0  0  0  0  0  0  0  0  0  0  0
   23.2700   14.4040   22.1730 C   0  0  0  0  0  0  0  0  0  0  0  0
   22.6750   14.2930   23.3720 N   0  0  0  0  0  0  0  0  0  0  0  0
   19.7390   11.0970   26.8990 C   0  0  0  0  0  0  0  0  0  0  0  0
   18.8570   10.8760   27.9430 C   0  0  0  0  0  0  0  0  0  0  0  0
   17.9170   11.8250   28.2900 C   0  0  0  0  0  0  0  0  0  0  0  0
   17.0440   11.5710   29.2990 F   0  0  0  0  0  0  0  0  0  0  0  0
   15.4360   13.6090   28.3270 C   0  0  0  0  0  0  0  0  0  0  0  0
   14.7160   12.8950   26.8700 S   0  0  0  0  0  0  0  0  0  0  0  0
   13.2780   13.0470   27.0020 O   0  0  0  0  0  0  0  0  0  0  0  0
   15.3650   11.6750   26.5040 O   0  0  0  0  0  0  0  0  0  0  0  0
   13.4971   13.6120   24.5415 H   0  0  0  0  0  0  0  0  0  0  0  0
   14.6287   14.7957   23.8031 H   0  0  0  0  0  0  0  0  0  0  0  0
   15.0335   13.0456   23.8031 H   0  0  0  0  0  0  0  0  0  0  0  0
   16.6530   16.8830   25.1250 H   0  0  0  0  0  0  0  0  0  0  0  0
   15.5430   15.9790   24.1980 H   0  0  0  0  0  0  0  0  0  0  0  0
   16.9472   14.2864   30.1927 H   0  0  0  0  0  0  0  0  0  0  0  0
   18.4219   14.8272   29.3213 H   0  0  0  0  0  0  0  0  0  0  0  0
   16.9502   15.8572   29.3213 H   0  0  0  0  0  0  0  0  0  0  0  0
   18.6992   14.2091   26.0496 H   0  0  0  0  0  0  0  0  0  0  0  0
   20.0760   12.6370   24.2570 H   0  0  0  0  0  0  0  0  0  0  0  0
   22.7557   10.9157   23.6523 H   0  0  0  0  0  0  0  0  0  0  0  0
   23.8757   11.1723   21.4264 H   0  0  0  0  0  0  0  0  0  0  0  0
   23.4143   15.4097   21.7515 H   0  0  0  0  0  0  0  0  0  0  0  0
   20.4851   10.3394   26.6173 H   0  0  0  0  0  0  0  0  0  0  0  0
   18.9061    9.9309   28.5037 H   0  0  0  0  0  0  0  0  0  0  0  0
   15.4870   12.8446   29.1164 H   0  0  0  0  0  0  0  0  0  0  0  0
   14.8108   14.4532   28.6533 H   0  0  0  0  0  0  0  0  0  0  0  0
  1  2  1  0
  2  3  1  0
  3  4  1  0
  3  5  2  0
  5  6  1  0
  6  7  1  1
  6  8  1  0
  8  9  2  0
  9 10  1  0
 10 11  1  0
 11 12  1  0
 12 13  2  0
 12 14  1  0
 14 15  2  0
 15 16  1  0
 16 17  2  0
 17 18  1  0
 17 19  1  0
 19 20  2  0
 10 21  2  0
 21 22  1  0
 22 23  2  0
 23 24  1  0
  6 25  1  0
 25 26  1  0
 26 27  2  0
 26 28  2  0
 26  2  1  0
 23  8  1  0
 20 14  1  0
  1 29  1  0
  1 30  1  0
  1 31  1  0
  4 32  1  0
  4 33  1  0
  7 34  1  0
  7 35  1  0
  7 36  1  0
  9 37  1  0
 11 38  1  0
 15 39  1  0
 16 40  1  0
 19 41  1  0
 21 42  1  0
 22 43  1  0
 25 44  1  0
 25 45  1  0
M  END
>  <meeko>  (16)
{"is_sidechain": false}

>  <source_group>  (16)
BACE1-476

>  <source_system>  (16)
BACE1_verubecestat

>  <source_run>  (16)
alternate_476_seed1103_ex32

>  <source_seed>  (16)
1103

>  <vina_pose_rank>  (16)
16

>  <vina_affinity_kcal_mol>  (16)
-6.8579999999999997

>  <vina_rmsd_to_crystal_angstrom>  (16)
8.7630999999999997

$$$$
BACE1_verubecestat__alternate_476_seed1103_ex32__pose17
     RDKit          3D

 45 47  0  0  0  0  0  0  0  0999 V2000
   22.9020   11.3370   23.4560 C   0  0  0  0  0  0  0  0  0  0  0  0
   22.3270   11.3340   24.8160 N   0  0  0  0  0  0  0  0  0  0  0  0
   22.0990   10.1510   25.5530 C   0  0  0  0  0  0  0  0  0  0  0  0
   22.5960    9.0220   24.9590 N   0  0  0  0  0  0  0  0  0  0  0  0
   21.4970   10.1210   26.7010 N   0  0  0  0  0  0  0  0  0  0  0  0
   20.8870   11.3170   27.2800 C   0  0  2  0  0  0  0  0  0  0  0  0
   20.7420   10.9470   28.7590 C   0  0  0  0  0  0  0  0  0  0  0  0
   19.5060   11.5900   26.7040 C   0  0  0  0  0  0  0  0  0  0  0  0
   18.6670   12.5500   27.2680 C   0  0  0  0  0  0  0  0  0  0  0  0
   17.4120   12.8160   26.7700 C   0  0  0  0  0  0  0  0  0  0  0  0
   16.6720   13.8070   27.4270 N   0  0  0  0  0  0  0  0  0  0  0  0
   16.1030   13.7580   28.6880 C   0  0  0  0  0  0  0  0  0  0  0  0
   16.0480   12.7610   29.3970 O   0  0  0  0  0  0  0  0  0  0  0  0
   15.5630   15.0440   29.1890 C   0  0  0  0  0  0  0  0  0  0  0  0
   15.3880   16.1070   28.3190 C   0  0  0  0  0  0  0  0  0  0  0  0
   14.8830   17.2840   28.8410 C   0  0  0  0  0  0  0  0  0  0  0  0
   14.5700   17.3630   30.1850 C   0  0  0  0  0  0  0  0  0  0  0  0
   14.0850   18.4870   30.7380 F   0  0  0  0  0  0  0  0  0  0  0  0
   14.7840   16.2540   30.9710 C   0  0  0  0  0  0  0  0  0  0  0  0
   15.2790   15.0990   30.4950 N   0  0  0  0  0  0  0  0  0  0  0  0
   16.9400   12.1360   25.6530 C   0  0  0  0  0  0  0  0  0  0  0  0
   17.7580   11.1770   25.0830 C   0  0  0  0  0  0  0  0  0  0  0  0
   19.0020   10.8990   25.6130 C   0  0  0  0  0  0  0  0  0  0  0  0
   19.7730    9.9320   25.0520 F   0  0  0  0  0  0  0  0  0  0  0  0
   21.8520   12.4800   27.2070 C   0  0  0  0  0  0  0  0  0  0  0  0
   22.1990   12.9010   25.5180 S   0  0  0  0  0  0  0  0  0  0  0  0
   23.5270   13.4890   25.5030 O   0  0  0  0  0  0  0  0  0  0  0  0
   21.0600   13.4730   24.8720 O   0  0  0  0  0  0  0  0  0  0  0  0
   24.0000   11.3427   23.5221 H   0  0  0  0  0  0  0  0  0  0  0  0
   22.5719   10.4371   22.9163 H   0  0  0  0  0  0  0  0  0  0  0  0
   22.5625   12.2334   22.9163 H   0  0  0  0  0  0  0  0  0  0  0  0
   22.4860    8.1470   25.3960 H   0  0  0  0  0  0  0  0  0  0  0  0
   23.0640    9.0850   24.0950 H   0  0  0  0  0  0  0  0  0  0  0  0
   21.0727   11.7909   29.3822 H   0  0  0  0  0  0  0  0  0  0  0  0
   19.6883   10.7199   28.9786 H   0  0  0  0  0  0  0  0  0  0  0  0
   21.3608   10.0644   28.9786 H   0  0  0  0  0  0  0  0  0  0  0  0
   19.0210   13.1153   28.1427 H   0  0  0  0  0  0  0  0  0  0  0  0
   16.5410   14.6460   26.9290 H   0  0  0  0  0  0  0  0  0  0  0  0
   15.6413   16.0186   27.2522 H   0  0  0  0  0  0  0  0  0  0  0  0
   14.7307   18.1558   28.1877 H   0  0  0  0  0  0  0  0  0  0  0  0
   14.5378   16.3160   32.0413 H   0  0  0  0  0  0  0  0  0  0  0  0
   15.9461   12.3540   25.2351 H   0  0  0  0  0  0  0  0  0  0  0  0
   17.4122   10.6281   24.1947 H   0  0  0  0  0  0  0  0  0  0  0  0
   21.4078   13.3503   27.7123 H   0  0  0  0  0  0  0  0  0  0  0  0
   22.7920   12.1916   27.7002 H   0  0  0  0  0  0  0  0  0  0  0  0
  1  2  1  0
  2  3  1  0
  3  4  1  0
  3  5  2  0
  5  6  1  0
  6  7  1  1
  6  8  1  0
  8  9  2  0
  9 10  1  0
 10 11  1  0
 11 12  1  0
 12 13  2  0
 12 14  1  0
 14 15  2  0
 15 16  1  0
 16 17  2  0
 17 18  1  0
 17 19  1  0
 19 20  2  0
 10 21  2  0
 21 22  1  0
 22 23  2  0
 23 24  1  0
  6 25  1  0
 25 26  1  0
 26 27  2  0
 26 28  2  0
 26  2  1  0
 23  8  1  0
 20 14  1  0
  1 29  1  0
  1 30  1  0
  1 31  1  0
  4 32  1  0
  4 33  1  0
  7 34  1  0
  7 35  1  0
  7 36  1  0
  9 37  1  0
 11 38  1  0
 15 39  1  0
 16 40  1  0
 19 41  1  0
 21 42  1  0
 22 43  1  0
 25 44  1  0
 25 45  1  0
M  END
>  <meeko>  (17)
{"is_sidechain": false}

>  <source_group>  (17)
BACE1-476

>  <source_system>  (17)
BACE1_verubecestat

>  <source_run>  (17)
alternate_476_seed1103_ex32

>  <source_seed>  (17)
1103

>  <vina_pose_rank>  (17)
17

>  <vina_affinity_kcal_mol>  (17)
-6.7249999999999996

>  <vina_rmsd_to_crystal_angstrom>  (17)
11.4148

$$$$
BACE1_verubecestat__alternate_476_seed1103_ex32__pose18
     RDKit          3D

 45 47  0  0  0  0  0  0  0  0999 V2000
   28.0420   14.6870   20.7260 C   0  0  0  0  0  0  0  0  0  0  0  0
   26.7950   13.8980   20.6830 N   0  0  0  0  0  0  0  0  0  0  0  0
   25.5270   14.4750   20.4460 C   0  0  0  0  0  0  0  0  0  0  0  0
   25.5750   15.8020   20.1100 N   0  0  0  0  0  0  0  0  0  0  0  0
   24.4110   13.8170   20.5120 N   0  0  0  0  0  0  0  0  0  0  0  0
   24.3650   12.4270   20.9640 C   0  0  2  0  0  0  0  0  0  0  0  0
   23.0100   11.9420   20.4410 C   0  0  0  0  0  0  0  0  0  0  0  0
   24.3730   12.3190   22.4810 C   0  0  0  0  0  0  0  0  0  0  0  0
   25.1220   13.1990   23.2610 C   0  0  0  0  0  0  0  0  0  0  0  0
   25.1510   13.1230   24.6350 C   0  0  0  0  0  0  0  0  0  0  0  0
   25.9420   14.0680   25.3000 N   0  0  0  0  0  0  0  0  0  0  0  0
   27.3220   14.1330   25.3710 C   0  0  0  0  0  0  0  0  0  0  0  0
   28.0900   13.2740   24.9560 O   0  0  0  0  0  0  0  0  0  0  0  0
   27.8680   15.3730   25.9730 C   0  0  0  0  0  0  0  0  0  0  0  0
   28.0980   16.4840   25.1790 C   0  0  0  0  0  0  0  0  0  0  0  0
   28.6100   17.6130   25.7930 C   0  0  0  0  0  0  0  0  0  0  0  0
   28.8670   17.6020   27.1500 C   0  0  0  0  0  0  0  0  0  0  0  0
   29.3730   18.6720   27.7880 F   0  0  0  0  0  0  0  0  0  0  0  0
   28.6110   16.4470   27.8540 C   0  0  0  0  0  0  0  0  0  0  0  0
   28.1200   15.3340   27.2860 N   0  0  0  0  0  0  0  0  0  0  0  0
   24.4000   12.1620   25.3020 C   0  0  0  0  0  0  0  0  0  0  0  0
   23.6530   11.2790   24.5430 C   0  0  0  0  0  0  0  0  0  0  0  0
   23.6600   11.3470   23.1640 C   0  0  0  0  0  0  0  0  0  0  0  0
   22.9410   10.4490   22.4420 F   0  0  0  0  0  0  0  0  0  0  0  0
   25.4290   11.6160   20.2580 C   0  0  0  0  0  0  0  0  0  0  0  0
   27.0500   12.1960   20.6920 S   0  0  0  0  0  0  0  0  0  0  0  0
   27.9150   11.8840   19.5680 O   0  0  0  0  0  0  0  0  0  0  0  0
   27.3670   11.9040   22.0550 O   0  0  0  0  0  0  0  0  0  0  0  0
   28.3262   14.8668   21.7733 H   0  0  0  0  0  0  0  0  0  0  0  0
   28.8447   14.1321   20.2184 H   0  0  0  0  0  0  0  0  0  0  0  0
   27.8843   15.6500   20.2184 H   0  0  0  0  0  0  0  0  0  0  0  0
   24.7410   16.2920   19.9260 H   0  0  0  0  0  0  0  0  0  0  0  0
   26.4420   16.2640   20.0520 H   0  0  0  0  0  0  0  0  0  0  0  0
   22.3520   11.7065   21.2905 H   0  0  0  0  0  0  0  0  0  0  0  0
   22.5496   12.7312   19.8284 H   0  0  0  0  0  0  0  0  0  0  0  0
   23.1550   11.0399   19.8284 H   0  0  0  0  0  0  0  0  0  0  0  0
   25.7107   13.9819   22.7605 H   0  0  0  0  0  0  0  0  0  0  0  0
   25.4540   14.7770   25.7770 H   0  0  0  0  0  0  0  0  0  0  0  0
   27.8817   16.4693   24.1006 H   0  0  0  0  0  0  0  0  0  0  0  0
   28.8121   18.5181   25.2014 H   0  0  0  0  0  0  0  0  0  0  0  0
   28.8188   16.4355   28.9341 H   0  0  0  0  0  0  0  0  0  0  0  0
   24.3997   12.1054   26.4005 H   0  0  0  0  0  0  0  0  0  0  0  0
   23.0450   10.5120   25.0451 H   0  0  0  0  0  0  0  0  0  0  0  0
   25.3325   10.5602   20.5514 H   0  0  0  0  0  0  0  0  0  0  0  0
   25.2936   11.7237   19.1717 H   0  0  0  0  0  0  0  0  0  0  0  0
  1  2  1  0
  2  3  1  0
  3  4  1  0
  3  5  2  0
  5  6  1  0
  6  7  1  6
  6  8  1  0
  8  9  2  0
  9 10  1  0
 10 11  1  0
 11 12  1  0
 12 13  2  0
 12 14  1  0
 14 15  2  0
 15 16  1  0
 16 17  2  0
 17 18  1  0
 17 19  1  0
 19 20  2  0
 10 21  2  0
 21 22  1  0
 22 23  2  0
 23 24  1  0
  6 25  1  0
 25 26  1  0
 26 27  2  0
 26 28  2  0
 26  2  1  0
 23  8  1  0
 20 14  1  0
  1 29  1  0
  1 30  1  0
  1 31  1  0
  4 32  1  0
  4 33  1  0
  7 34  1  0
  7 35  1  0
  7 36  1  0
  9 37  1  0
 11 38  1  0
 15 39  1  0
 16 40  1  0
 19 41  1  0
 21 42  1  0
 22 43  1  0
 25 44  1  0
 25 45  1  0
M  END
>  <meeko>  (18)
{"is_sidechain": false}

>  <source_group>  (18)
BACE1-476

>  <source_system>  (18)
BACE1_verubecestat

>  <source_run>  (18)
alternate_476_seed1103_ex32

>  <source_seed>  (18)
1103

>  <vina_pose_rank>  (18)
18

>  <vina_affinity_kcal_mol>  (18)
-6.6159999999999997

>  <vina_rmsd_to_crystal_angstrom>  (18)
6.6692999999999998

$$$$
BACE1_verubecestat__alternate_476_seed1103_ex32__pose19
     RDKit          3D

 45 47  0  0  0  0  0  0  0  0999 V2000
   25.3710    8.9510   21.5690 C   0  0  0  0  0  0  0  0  0  0  0  0
   25.1390   10.4060   21.4680 N   0  0  0  0  0  0  0  0  0  0  0  0
   26.1860   11.3450   21.3330 C   0  0  0  0  0  0  0  0  0  0  0  0
   27.4200   10.7790   21.1500 N   0  0  0  0  0  0  0  0  0  0  0  0
   26.0090   12.6300   21.3520 N   0  0  0  0  0  0  0  0  0  0  0  0
   24.7040   13.2220   21.6410 C   0  0  2  0  0  0  0  0  0  0  0  0
   24.8470   14.6470   21.1010 C   0  0  0  0  0  0  0  0  0  0  0  0
   24.4260   13.2880   23.1350 C   0  0  0  0  0  0  0  0  0  0  0  0
   23.1310   13.1520   23.6330 C   0  0  0  0  0  0  0  0  0  0  0  0
   22.8500   13.2110   24.9790 C   0  0  0  0  0  0  0  0  0  0  0  0
   21.5070   13.0570   25.3470 N   0  0  0  0  0  0  0  0  0  0  0  0
   20.8080   11.8840   25.5680 C   0  0  0  0  0  0  0  0  0  0  0  0
   21.2330   10.7580   25.3460 O   0  0  0  0  0  0  0  0  0  0  0  0
   19.4550   12.0540   26.1530 C   0  0  0  0  0  0  0  0  0  0  0  0
   18.4530   12.6580   25.4120 C   0  0  0  0  0  0  0  0  0  0  0  0
   17.2110   12.7920   26.0070 C   0  0  0  0  0  0  0  0  0  0  0  0
   17.0100   12.3280   27.2930 C   0  0  0  0  0  0  0  0  0  0  0  0
   15.8250   12.4450   27.9150 F   0  0  0  0  0  0  0  0  0  0  0  0
   18.0710   11.7470   27.9510 C   0  0  0  0  0  0  0  0  0  0  0  0
   19.2890   11.6080   27.4020 N   0  0  0  0  0  0  0  0  0  0  0  0
   23.8720   13.3880   25.9040 C   0  0  0  0  0  0  0  0  0  0  0  0
   25.1630   13.5270   25.4270 C   0  0  0  0  0  0  0  0  0  0  0  0
   25.4260   13.4990   24.0720 C   0  0  0  0  0  0  0  0  0  0  0  0
   26.6990   13.6670   23.6290 F   0  0  0  0  0  0  0  0  0  0  0  0
   23.6320   12.5420   20.8190 C   0  0  0  0  0  0  0  0  0  0  0  0
   23.4830   10.8320   21.2740 S   0  0  0  0  0  0  0  0  0  0  0  0
   22.9930   10.1330   20.0990 O   0  0  0  0  0  0  0  0  0  0  0  0
   22.9350   10.6810   22.5860 O   0  0  0  0  0  0  0  0  0  0  0  0
   25.4174    8.6598   22.6287 H   0  0  0  0  0  0  0  0  0  0  0  0
   24.5472    8.4133   21.0767 H   0  0  0  0  0  0  0  0  0  0  0  0
   26.3211    8.6962   21.0767 H   0  0  0  0  0  0  0  0  0  0  0  0
   28.2130   11.3520   21.0460 H   0  0  0  0  0  0  0  0  0  0  0  0
   27.5130    9.7990   21.1230 H   0  0  0  0  0  0  0  0  0  0  0  0
   24.9178   15.3524   21.9420 H   0  0  0  0  0  0  0  0  0  0  0  0
   25.7566   14.7167   20.4864 H   0  0  0  0  0  0  0  0  0  0  0  0
   23.9693   14.8960   20.4864 H   0  0  0  0  0  0  0  0  0  0  0  0
   22.3045   12.9919   22.9250 H   0  0  0  0  0  0  0  0  0  0  0  0
   20.9960   13.8910   25.4630 H   0  0  0  0  0  0  0  0  0  0  0  0
   18.6375   13.0177   24.3890 H   0  0  0  0  0  0  0  0  0  0  0  0
   16.3851   13.2671   25.4573 H   0  0  0  0  0  0  0  0  0  0  0  0
   17.9135   11.3790   28.9756 H   0  0  0  0  0  0  0  0  0  0  0  0
   23.6606   13.4167   26.9831 H   0  0  0  0  0  0  0  0  0  0  0  0
   25.9919   13.6618   26.1375 H   0  0  0  0  0  0  0  0  0  0  0  0
   22.6700   13.0468   20.9915 H   0  0  0  0  0  0  0  0  0  0  0  0
   23.9093   12.6025   19.7563 H   0  0  0  0  0  0  0  0  0  0  0  0
  1  2  1  0
  2  3  1  0
  3  4  1  0
  3  5  2  0
  5  6  1  0
  6  7  1  6
  6  8  1  0
  8  9  2  0
  9 10  1  0
 10 11  1  0
 11 12  1  0
 12 13  2  0
 12 14  1  0
 14 15  2  0
 15 16  1  0
 16 17  2  0
 17 18  1  0
 17 19  1  0
 19 20  2  0
 10 21  2  0
 21 22  1  0
 22 23  2  0
 23 24  1  0
  6 25  1  0
 25 26  1  0
 26 27  2  0
 26 28  2  0
 26  2  1  0
 23  8  1  0
 20 14  1  0
  1 29  1  0
  1 30  1  0
  1 31  1  0
  4 32  1  0
  4 33  1  0
  7 34  1  0
  7 35  1  0
  7 36  1  0
  9 37  1  0
 11 38  1  0
 15 39  1  0
 16 40  1  0
 19 41  1  0
 21 42  1  0
 22 43  1  0
 25 44  1  0
 25 45  1  0
M  END
>  <meeko>  (19)
{"is_sidechain": false}

>  <source_group>  (19)
BACE1-476

>  <source_system>  (19)
BACE1_verubecestat

>  <source_run>  (19)
alternate_476_seed1103_ex32

>  <source_seed>  (19)
1103

>  <vina_pose_rank>  (19)
19

>  <vina_affinity_kcal_mol>  (19)
-6.5519999999999996

>  <vina_rmsd_to_crystal_angstrom>  (19)
8.4198000000000004

$$$$
