BACE1_verubecestat__alternate_476_seed1103_ex32__pose01


 31 33  0  0  0  0  0  0  0  0999 V2000
   24.7270   12.5040   21.0460 C   0  0  0  0  0  0  0  0  0  0  0  0
   24.0280   12.2730   22.2300 C   0  0  0  0  0  0  0  0  0  0  0  0
   23.3750   11.0870   22.4800 C   0  0  0  0  0  0  0  0  0  0  0  0
   23.3750   10.0710   21.5320 C   0  0  0  0  0  0  0  0  0  0  0  0
   24.0660   10.2820   20.3530 C   0  0  0  0  0  0  0  0  0  0  0  0
   24.7430   11.4650   20.1290 C   0  0  0  0  0  0  0  0  0  0  0  0
   25.4390   11.6350   18.9750 F   0  0  0  0  0  0  0  0  0  0  0  0
   27.6370   13.7660   24.5230 C   0  0  0  0  0  0  0  0  0  0  0  0
   26.9610   13.8800   23.2160 N   0  0  0  0  0  0  0  0  0  0  0  0
   25.8740   14.7510   22.9840 C   0  0  0  0  0  0  0  0  0  0  0  0
   25.6000   15.5880   24.0320 N   0  0  0  0  0  0  0  0  0  0  0  0
   25.2000   14.7860   21.8760 N   0  0  0  0  0  0  0  0  0  0  0  0
   25.4400   13.8250   20.8010 C   0  0  0  0  0  0  0  0  0  0  0  0
   24.8110   14.5080   19.5830 C   0  0  0  0  0  0  0  0  0  0  0  0
   26.9230   13.7110   20.5270 C   0  0  0  0  0  0  0  0  0  0  0  0
   27.7730   13.0540   21.9410 S   0  0  0  0  0  0  0  0  0  0  0  0
   29.1280   13.5720   21.8870 O   0  0  0  0  0  0  0  0  0  0  0  0
   27.4460   11.6800   22.1620 O   0  0  0  0  0  0  0  0  0  0  0  0
   24.8580   16.2330   23.9660 H   0  0  0  0  0  0  0  0  0  0  0  0
   26.1440   15.5460   24.8520 H   0  0  0  0  0  0  0  0  0  0  0  0
   22.7080   10.9840   23.7080 N   0  0  0  0  0  0  0  0  0  0  0  0
   23.2060   11.2210   24.9760 C   0  0  0  0  0  0  0  0  0  0  0  0
   24.3810   11.4410   25.2420 O   0  0  0  0  0  0  0  0  0  0  0  0
   21.7640   10.7090   23.6610 H   0  0  0  0  0  0  0  0  0  0  0  0
   22.1960   11.2330   26.0620 C   0  0  0  0  0  0  0  0  0  0  0  0
   20.8910   10.8550   25.7950 C   0  0  0  0  0  0  0  0  0  0  0  0
   19.9890   10.8870   26.8440 C   0  0  0  0  0  0  0  0  0  0  0  0
   20.4080   11.2820   28.1000 C   0  0  0  0  0  0  0  0  0  0  0  0
   19.5670   11.3370   29.1460 F   0  0  0  0  0  0  0  0  0  0  0  0
   21.7260   11.6440   28.2650 C   0  0  0  0  0  0  0  0  0  0  0  0
   22.6230   11.6300   27.2650 N   0  0  0  0  0  0  0  0  0  0  0  0
  8  9  1  0
  9 10  1  0
 10 11  1  0
 10 12  2  0
 12 13  1  0
 13 14  1  0
 13  1  1  0
  1  2  2  0
  2  3  1  0
  3 21  1  0
 21 22  1  0
 22 23  2  0
 22 25  1  0
 25 26  2  0
 26 27  1  0
 27 28  2  0
 28 29  1  0
 28 30  1  0
 30 31  2  0
  3  4  2  0
  4  5  1  0
  5  6  2  0
  6  7  1  0
 13 15  1  0
 15 16  1  0
 16 17  2  0
 16 18  2  0
 16  9  1  0
  6  1  1  0
 31 25  1  0
 11 19  1  0
 11 20  1  0
 21 24  1  0
M  END
> <meeko>
{"is_sidechain": false}

> <source_group>
BACE1-476

> <source_system>
BACE1_verubecestat

> <source_run>
alternate_476_seed1103_ex32

> <source_seed>
1103

> <vina_pose_rank>
1

> <vina_affinity_kcal_mol>
-9.1489999999999991

> <vina_rmsd_to_crystal_angstrom>
7.1360000000000001

> <minimizedAffinity>
-9.15495

> <CNNscore>
0.1053337902

> <CNNaffinity>
5.6596817970

> <CNN_VS>
0.5961557627

> <CNNaffinity_variance>
0.5860239863

$$$$
BACE1_verubecestat__alternate_476_seed1103_ex32__pose02


 31 33  0  0  0  0  0  0  0  0999 V2000
   26.9010   13.0710   22.9310 C   0  0  0  0  0  0  0  0  0  0  0  0
   25.8220   12.7020   23.7340 C   0  0  0  0  0  0  0  0  0  0  0  0
   25.6410   13.2080   25.0010 C   0  0  0  0  0  0  0  0  0  0  0  0
   26.5560   14.1040   25.5390 C   0  0  0  0  0  0  0  0  0  0  0  0
   27.6310   14.4850   24.7540 C   0  0  0  0  0  0  0  0  0  0  0  0
   27.7830   13.9930   23.4730 C   0  0  0  0  0  0  0  0  0  0  0  0
   28.8310   14.4050   22.7140 F   0  0  0  0  0  0  0  0  0  0  0  0
   23.0860   13.5180   20.2120 C   0  0  0  0  0  0  0  0  0  0  0  0
   24.4750   13.1440   20.5430 N   0  0  0  0  0  0  0  0  0  0  0  0
   24.8690   11.8180   20.8290 C   0  0  0  0  0  0  0  0  0  0  0  0
   23.8840   10.8900   20.6230 N   0  0  0  0  0  0  0  0  0  0  0  0
   26.0590   11.4880   21.2270 N   0  0  0  0  0  0  0  0  0  0  0  0
   27.0720   12.4960   21.5340 C   0  0  0  0  0  0  0  0  0  0  0  0
   28.3770   11.6960   21.4860 C   0  0  0  0  0  0  0  0  0  0  0  0
   27.1400   13.5210   20.4230 C   0  0  0  0  0  0  0  0  0  0  0  0
   25.6110   14.4150   20.3020 S   0  0  0  0  0  0  0  0  0  0  0  0
   25.4900   14.8430   18.9200 O   0  0  0  0  0  0  0  0  0  0  0  0
   25.4100   15.2710   21.4290 O   0  0  0  0  0  0  0  0  0  0  0  0
   24.0620    9.9370   20.7950 H   0  0  0  0  0  0  0  0  0  0  0  0
   22.9970   11.1750   20.3030 H   0  0  0  0  0  0  0  0  0  0  0  0
   24.5170   12.7530   25.7040 N   0  0  0  0  0  0  0  0  0  0  0  0
   23.1860   12.8270   25.3320 C   0  0  0  0  0  0  0  0  0  0  0  0
   22.7590   13.4340   24.3590 O   0  0  0  0  0  0  0  0  0  0  0  0
   24.6980   12.3260   26.5720 H   0  0  0  0  0  0  0  0  0  0  0  0
   22.2460   12.0660   26.1910 C   0  0  0  0  0  0  0  0  0  0  0  0
   21.0700   11.5700   25.6580 C   0  0  0  0  0  0  0  0  0  0  0  0
   20.2290   10.8700   26.5050 C   0  0  0  0  0  0  0  0  0  0  0  0
   20.5820   10.6870   27.8280 C   0  0  0  0  0  0  0  0  0  0  0  0
   19.7930   10.0220   28.6890 F   0  0  0  0  0  0  0  0  0  0  0  0
   21.7700   11.2240   28.2670 C   0  0  0  0  0  0  0  0  0  0  0  0
   22.6040   11.9130   27.4710 N   0  0  0  0  0  0  0  0  0  0  0  0
  8  9  1  0
  9 10  1  0
 10 11  1  0
 10 12  2  0
 12 13  1  0
 13 14  1  0
 13  1  1  0
  1  2  2  0
  2  3  1  0
  3 21  1  0
 21 22  1  0
 22 23  2  0
 22 25  1  0
 25 26  2  0
 26 27  1  0
 27 28  2  0
 28 29  1  0
 28 30  1  0
 30 31  2  0
  3  4  2  0
  4  5  1  0
  5  6  2  0
  6  7  1  0
 13 15  1  0
 15 16  1  0
 16 17  2  0
 16 18  2  0
 16  9  1  0
  6  1  1  0
 31 25  1  0
 11 19  1  0
 11 20  1  0
 21 24  1  0
M  END
> <meeko>
{"is_sidechain": false}

> <source_group>
BACE1-476

> <source_system>
BACE1_verubecestat

> <source_run>
alternate_476_seed1103_ex32

> <source_seed>
1103

> <vina_pose_rank>
2

> <vina_affinity_kcal_mol>
-8.5530000000000008

> <vina_rmsd_to_crystal_angstrom>
7.5345000000000004

> <minimizedAffinity>
-8.54235

> <CNNscore>
0.0293376148

> <CNNaffinity>
4.2776150703

> <CNN_VS>
0.1254950166

> <CNNaffinity_variance>
1.8162336349

$$$$
BACE1_verubecestat__alternate_476_seed1103_ex32__pose03


 31 33  0  0  0  0  0  0  0  0999 V2000
   24.7000   12.4900   21.4470 C   0  0  0  0  0  0  0  0  0  0  0  0
   24.2490   12.5980   22.7610 C   0  0  0  0  0  0  0  0  0  0  0  0
   23.4240   11.6580   23.3360 C   0  0  0  0  0  0  0  0  0  0  0  0
   22.9880   10.5610   22.6030 C   0  0  0  0  0  0  0  0  0  0  0  0
   23.4280   10.4360   21.2970 C   0  0  0  0  0  0  0  0  0  0  0  0
   24.2820   11.3700   20.7440 C   0  0  0  0  0  0  0  0  0  0  0  0
   24.7230   11.2080   19.4700 F   0  0  0  0  0  0  0  0  0  0  0  0
   28.5280   13.3960   24.0300 C   0  0  0  0  0  0  0  0  0  0  0  0
   27.6160   13.5130   22.8750 N   0  0  0  0  0  0  0  0  0  0  0  0
   26.7250   14.5960   22.7030 C   0  0  0  0  0  0  0  0  0  0  0  0
   26.8890   15.6000   23.6200 N   0  0  0  0  0  0  0  0  0  0  0  0
   25.8430   14.6610   21.7550 N   0  0  0  0  0  0  0  0  0  0  0  0
   25.6130   13.5440   20.8410 C   0  0  0  0  0  0  0  0  0  0  0  0
   24.8920   14.2060   19.6640 C   0  0  0  0  0  0  0  0  0  0  0  0
   26.9330   13.0230   20.3160 C   0  0  0  0  0  0  0  0  0  0  0  0
   27.9130   12.3550   21.6360 S   0  0  0  0  0  0  0  0  0  0  0  0
   29.3010   12.5000   21.2350 O   0  0  0  0  0  0  0  0  0  0  0  0
   27.3490   11.1480   22.1540 O   0  0  0  0  0  0  0  0  0  0  0  0
   26.3140   16.3980   23.5830 H   0  0  0  0  0  0  0  0  0  0  0  0
   27.5810   15.5240   24.3160 H   0  0  0  0  0  0  0  0  0  0  0  0
   23.0410   11.8860   24.6640 N   0  0  0  0  0  0  0  0  0  0  0  0
   22.0250   12.6980   25.1360 C   0  0  0  0  0  0  0  0  0  0  0  0
   21.3620   13.4660   24.4510 O   0  0  0  0  0  0  0  0  0  0  0  0
   23.5620   11.4080   25.3500 H   0  0  0  0  0  0  0  0  0  0  0  0
   21.7300   12.5670   26.5830 C   0  0  0  0  0  0  0  0  0  0  0  0
   22.6750   12.9510   27.5190 C   0  0  0  0  0  0  0  0  0  0  0  0
   22.3480   12.8050   28.8550 C   0  0  0  0  0  0  0  0  0  0  0  0
   21.1130   12.2960   29.2100 C   0  0  0  0  0  0  0  0  0  0  0  0
   20.7550   12.1280   30.4940 F   0  0  0  0  0  0  0  0  0  0  0  0
   20.2420   11.9380   28.2060 C   0  0  0  0  0  0  0  0  0  0  0  0
   20.5330   12.0620   26.9010 N   0  0  0  0  0  0  0  0  0  0  0  0
  8  9  1  0
  9 10  1  0
 10 11  1  0
 10 12  2  0
 12 13  1  0
 13 14  1  0
 13  1  1  0
  1  2  2  0
  2  3  1  0
  3 21  1  0
 21 22  1  0
 22 23  2  0
 22 25  1  0
 25 26  2  0
 26 27  1  0
 27 28  2  0
 28 29  1  0
 28 30  1  0
 30 31  2  0
  3  4  2  0
  4  5  1  0
  5  6  2  0
  6  7  1  0
 13 15  1  0
 15 16  1  0
 16 17  2  0
 16 18  2  0
 16  9  1  0
  6  1  1  0
 31 25  1  0
 11 19  1  0
 11 20  1  0
 21 24  1  0
M  END
> <meeko>
{"is_sidechain": false}

> <source_group>
BACE1-476

> <source_system>
BACE1_verubecestat

> <source_run>
alternate_476_seed1103_ex32

> <source_seed>
1103

> <vina_pose_rank>
3

> <vina_affinity_kcal_mol>
-8.5419999999999998

> <vina_rmsd_to_crystal_angstrom>
7.4946000000000002

> <minimizedAffinity>
-8.46910

> <CNNscore>
0.2248281538

> <CNNaffinity>
6.2385506630

> <CNN_VS>
1.4026018381

> <CNNaffinity_variance>
0.1158638969

$$$$
BACE1_verubecestat__alternate_476_seed1103_ex32__pose04


 31 33  0  0  0  0  0  0  0  0999 V2000
   25.2840   13.6080   21.4330 C   0  0  0  0  0  0  0  0  0  0  0  0
   24.5190   13.4220   22.5830 C   0  0  0  0  0  0  0  0  0  0  0  0
   23.6010   12.4030   22.7000 C   0  0  0  0  0  0  0  0  0  0  0  0
   23.3870   11.5250   21.6450 C   0  0  0  0  0  0  0  0  0  0  0  0
   24.1400   11.6920   20.4960 C   0  0  0  0  0  0  0  0  0  0  0  0
   25.0810   12.6990   20.4060 C   0  0  0  0  0  0  0  0  0  0  0  0
   25.8280   12.8240   19.2780 F   0  0  0  0  0  0  0  0  0  0  0  0
   28.5050   13.5820   24.8640 C   0  0  0  0  0  0  0  0  0  0  0  0
   27.8450   14.0560   23.6320 N   0  0  0  0  0  0  0  0  0  0  0  0
   26.9990   15.1870   23.5980 C   0  0  0  0  0  0  0  0  0  0  0  0
   26.9660   15.8910   24.7710 N   0  0  0  0  0  0  0  0  0  0  0  0
   26.3260   15.5530   22.5510 N   0  0  0  0  0  0  0  0  0  0  0  0
   26.2940   14.7410   21.3350 C   0  0  0  0  0  0  0  0  0  0  0  0
   25.8200   15.7360   20.2720 C   0  0  0  0  0  0  0  0  0  0  0  0
   27.6960   14.3200   20.9550 C   0  0  0  0  0  0  0  0  0  0  0  0
   28.3940   13.2690   22.2030 S   0  0  0  0  0  0  0  0  0  0  0  0
   29.8330   13.4500   22.1380 O   0  0  0  0  0  0  0  0  0  0  0  0
   27.7460   11.9950   22.2430 O   0  0  0  0  0  0  0  0  0  0  0  0
   26.4050   16.6970   24.8460 H   0  0  0  0  0  0  0  0  0  0  0  0
   27.5050   15.5940   25.5400 H   0  0  0  0  0  0  0  0  0  0  0  0
   22.8960   12.3290   23.9080 N   0  0  0  0  0  0  0  0  0  0  0  0
   23.2260   11.6230   25.0510 C   0  0  0  0  0  0  0  0  0  0  0  0
   24.1500   10.8250   25.1440 O   0  0  0  0  0  0  0  0  0  0  0  0
   22.0590   12.8460   23.9490 H   0  0  0  0  0  0  0  0  0  0  0  0
   22.3870   11.9140   26.2390 C   0  0  0  0  0  0  0  0  0  0  0  0
   21.0140   11.7500   26.1730 C   0  0  0  0  0  0  0  0  0  0  0  0
   20.2810   12.0370   27.3110 C   0  0  0  0  0  0  0  0  0  0  0  0
   20.9250   12.4670   28.4550 C   0  0  0  0  0  0  0  0  0  0  0  0
   20.2540   12.7670   29.5800 F   0  0  0  0  0  0  0  0  0  0  0  0
   22.2950   12.6050   28.4210 C   0  0  0  0  0  0  0  0  0  0  0  0
   23.0330   12.3390   27.3300 N   0  0  0  0  0  0  0  0  0  0  0  0
  8  9  1  0
  9 10  1  0
 10 11  1  0
 10 12  2  0
 12 13  1  0
 13 14  1  0
 13  1  1  0
  1  2  2  0
  2  3  1  0
  3 21  1  0
 21 22  1  0
 22 23  2  0
 22 25  1  0
 25 26  2  0
 26 27  1  0
 27 28  2  0
 28 29  1  0
 28 30  1  0
 30 31  2  0
  3  4  2  0
  4  5  1  0
  5  6  2  0
  6  7  1  0
 13 15  1  0
 15 16  1  0
 16 17  2  0
 16 18  2  0
 16  9  1  0
  6  1  1  0
 31 25  1  0
 11 19  1  0
 11 20  1  0
 21 24  1  0
M  END
> <meeko>
{"is_sidechain": false}

> <source_group>
BACE1-476

> <source_system>
BACE1_verubecestat

> <source_run>
alternate_476_seed1103_ex32

> <source_seed>
1103

> <vina_pose_rank>
4

> <vina_affinity_kcal_mol>
-8.5399999999999991

> <vina_rmsd_to_crystal_angstrom>
7.5514000000000001

> <minimizedAffinity>
-8.38712

> <CNNscore>
0.0169850532

> <CNNaffinity>
4.7182650566

> <CNN_VS>
0.0801399797

> <CNNaffinity_variance>
0.7303813100

$$$$
BACE1_verubecestat__alternate_476_seed1103_ex32__pose05


 31 33  0  0  0  0  0  0  0  0999 V2000
   20.9730   12.0960   27.3670 C   0  0  0  0  0  0  0  0  0  0  0  0
   21.5940   12.0100   26.1220 C   0  0  0  0  0  0  0  0  0  0  0  0
   22.7570   12.6870   25.8310 C   0  0  0  0  0  0  0  0  0  0  0  0
   23.3470   13.5110   26.7810 C   0  0  0  0  0  0  0  0  0  0  0  0
   22.7470   13.6060   28.0230 C   0  0  0  0  0  0  0  0  0  0  0  0
   21.5980   12.8960   28.3120 C   0  0  0  0  0  0  0  0  0  0  0  0
   21.0440   12.9830   29.5490 F   0  0  0  0  0  0  0  0  0  0  0  0
   17.0580   14.5180   26.3860 C   0  0  0  0  0  0  0  0  0  0  0  0
   17.8560   13.3550   26.8210 N   0  0  0  0  0  0  0  0  0  0  0  0
   18.0350   13.0080   28.1790 C   0  0  0  0  0  0  0  0  0  0  0  0
   17.2820   13.7530   29.0460 N   0  0  0  0  0  0  0  0  0  0  0  0
   18.8200   12.0580   28.5840 N   0  0  0  0  0  0  0  0  0  0  0  0
   19.6900   11.3340   27.6590 C   0  0  0  0  0  0  0  0  0  0  0  0
   20.0370   10.0620   28.4390 C   0  0  0  0  0  0  0  0  0  0  0  0
   18.9080   10.9040   26.4380 C   0  0  0  0  0  0  0  0  0  0  0  0
   18.3340   12.3190   25.5320 S   0  0  0  0  0  0  0  0  0  0  0  0
   17.1250   11.9060   24.8420 O   0  0  0  0  0  0  0  0  0  0  0  0
   19.4140   13.0210   24.9110 O   0  0  0  0  0  0  0  0  0  0  0  0
   17.3370   13.5860   30.0150 H   0  0  0  0  0  0  0  0  0  0  0  0
   16.6830   14.4550   28.7010 H   0  0  0  0  0  0  0  0  0  0  0  0
   23.2760   12.5170   24.5410 N   0  0  0  0  0  0  0  0  0  0  0  0
   23.1300   13.3440   23.4420 C   0  0  0  0  0  0  0  0  0  0  0  0
   22.3960   14.3220   23.3890 O   0  0  0  0  0  0  0  0  0  0  0  0
   23.8140   11.7040   24.3990 H   0  0  0  0  0  0  0  0  0  0  0  0
   23.9760   13.0000   22.2730 C   0  0  0  0  0  0  0  0  0  0  0  0
   23.4380   13.0290   20.9980 C   0  0  0  0  0  0  0  0  0  0  0  0
   24.2710   12.6970   19.9450 C   0  0  0  0  0  0  0  0  0  0  0  0
   25.5880   12.3560   20.1900 C   0  0  0  0  0  0  0  0  0  0  0  0
   26.4310   12.0180   19.2000 F   0  0  0  0  0  0  0  0  0  0  0  0
   26.0290   12.3500   21.4940 C   0  0  0  0  0  0  0  0  0  0  0  0
   25.2430   12.6620   22.5370 N   0  0  0  0  0  0  0  0  0  0  0  0
  8  9  1  0
  9 10  1  0
 10 11  1  0
 10 12  2  0
 12 13  1  0
 13 14  1  0
 13  1  1  0
  1  2  2  0
  2  3  1  0
  3 21  1  0
 21 22  1  0
 22 23  2  0
 22 25  1  0
 25 26  2  0
 26 27  1  0
 27 28  2  0
 28 29  1  0
 28 30  1  0
 30 31  2  0
  3  4  2  0
  4  5  1  0
  5  6  2  0
  6  7  1  0
 13 15  1  0
 15 16  1  0
 16 17  2  0
 16 18  2  0
 16  9  1  0
  6  1  1  0
 31 25  1  0
 11 19  1  0
 11 20  1  0
 21 24  1  0
M  END
> <meeko>
{"is_sidechain": false}

> <source_group>
BACE1-476

> <source_system>
BACE1_verubecestat

> <source_run>
alternate_476_seed1103_ex32

> <source_seed>
1103

> <vina_pose_rank>
5

> <vina_affinity_kcal_mol>
-8.3379999999999992

> <vina_rmsd_to_crystal_angstrom>
6.8402000000000003

> <minimizedAffinity>
-8.88937

> <CNNscore>
0.2557168007

> <CNNaffinity>
5.7162938118

> <CNN_VS>
1.4617524147

> <CNNaffinity_variance>
0.2134394646

$$$$
BACE1_verubecestat__alternate_476_seed1103_ex32__pose06


 31 33  0  0  0  0  0  0  0  0999 V2000
   20.9410   12.0800   27.3990 C   0  0  0  0  0  0  0  0  0  0  0  0
   21.5980   11.9430   26.1770 C   0  0  0  0  0  0  0  0  0  0  0  0
   22.7630   12.6170   25.8880 C   0  0  0  0  0  0  0  0  0  0  0  0
   23.3200   13.4890   26.8160 C   0  0  0  0  0  0  0  0  0  0  0  0
   22.6830   13.6340   28.0360 C   0  0  0  0  0  0  0  0  0  0  0  0
   21.5330   12.9270   28.3240 C   0  0  0  0  0  0  0  0  0  0  0  0
   20.9440   13.0650   29.5390 F   0  0  0  0  0  0  0  0  0  0  0  0
   17.0310   14.5220   26.4520 C   0  0  0  0  0  0  0  0  0  0  0  0
   17.8270   13.3530   26.8750 N   0  0  0  0  0  0  0  0  0  0  0  0
   18.0100   12.9950   28.2300 C   0  0  0  0  0  0  0  0  0  0  0  0
   17.2620   13.7350   29.1060 N   0  0  0  0  0  0  0  0  0  0  0  0
   18.7920   12.0380   28.6240 N   0  0  0  0  0  0  0  0  0  0  0  0
   19.6570   11.3190   27.6900 C   0  0  0  0  0  0  0  0  0  0  0  0
   20.0030   10.0400   28.4580 C   0  0  0  0  0  0  0  0  0  0  0  0
   18.8690   10.9030   26.4680 C   0  0  0  0  0  0  0  0  0  0  0  0
   18.2960   12.3260   25.5760 S   0  0  0  0  0  0  0  0  0  0  0  0
   17.0840   11.9230   24.8870 O   0  0  0  0  0  0  0  0  0  0  0  0
   19.3760   13.0300   24.9570 O   0  0  0  0  0  0  0  0  0  0  0  0
   17.3200   13.5600   30.0730 H   0  0  0  0  0  0  0  0  0  0  0  0
   16.6650   14.4420   28.7690 H   0  0  0  0  0  0  0  0  0  0  0  0
   23.3200   12.3930   24.6230 N   0  0  0  0  0  0  0  0  0  0  0  0
   23.7350   11.1950   24.0680 C   0  0  0  0  0  0  0  0  0  0  0  0
   23.7990   10.1280   24.6650 O   0  0  0  0  0  0  0  0  0  0  0  0
   23.4300   13.1900   24.0550 H   0  0  0  0  0  0  0  0  0  0  0  0
   24.0860   11.2520   22.6290 C   0  0  0  0  0  0  0  0  0  0  0  0
   23.3720   10.4980   21.7130 C   0  0  0  0  0  0  0  0  0  0  0  0
   23.7430   10.5870   20.3830 C   0  0  0  0  0  0  0  0  0  0  0  0
   24.7900   11.4100   20.0150 C   0  0  0  0  0  0  0  0  0  0  0  0
   25.1920   11.5210   18.7380 F   0  0  0  0  0  0  0  0  0  0  0  0
   25.4440   12.1160   20.9990 C   0  0  0  0  0  0  0  0  0  0  0  0
   25.1100   12.0450   22.2990 N   0  0  0  0  0  0  0  0  0  0  0  0
  8  9  1  0
  9 10  1  0
 10 11  1  0
 10 12  2  0
 12 13  1  0
 13 14  1  0
 13  1  1  0
  1  2  2  0
  2  3  1  0
  3 21  1  0
 21 22  1  0
 22 23  2  0
 22 25  1  0
 25 26  2  0
 26 27  1  0
 27 28  2  0
 28 29  1  0
 28 30  1  0
 30 31  2  0
  3  4  2  0
  4  5  1  0
  5  6  2  0
  6  7  1  0
 13 15  1  0
 15 16  1  0
 16 17  2  0
 16 18  2  0
 16  9  1  0
  6  1  1  0
 31 25  1  0
 11 19  1  0
 11 20  1  0
 21 24  1  0
M  END
> <meeko>
{"is_sidechain": false}

> <source_group>
BACE1-476

> <source_system>
BACE1_verubecestat

> <source_run>
alternate_476_seed1103_ex32

> <source_seed>
1103

> <vina_pose_rank>
6

> <vina_affinity_kcal_mol>
-8.2530000000000001

> <vina_rmsd_to_crystal_angstrom>
6.8255999999999997

> <minimizedAffinity>
-8.89636

> <CNNscore>
0.1076219827

> <CNNaffinity>
5.5633926392

> <CNN_VS>
0.5987433195

> <CNNaffinity_variance>
0.2327133864

$$$$
BACE1_verubecestat__alternate_476_seed1103_ex32__pose07


 31 33  0  0  0  0  0  0  0  0999 V2000
   26.4850   13.5810   22.6980 C   0  0  0  0  0  0  0  0  0  0  0  0
   25.6360   13.0110   23.6460 C   0  0  0  0  0  0  0  0  0  0  0  0
   24.2740   13.2090   23.6280 C   0  0  0  0  0  0  0  0  0  0  0  0
   23.6930   14.0160   22.6580 C   0  0  0  0  0  0  0  0  0  0  0  0
   24.5200   14.5870   21.7070 C   0  0  0  0  0  0  0  0  0  0  0  0
   25.8810   14.3540   21.7180 C   0  0  0  0  0  0  0  0  0  0  0  0
   26.6670   14.9030   20.7560 F   0  0  0  0  0  0  0  0  0  0  0  0
   28.8840   16.9730   24.9100 C   0  0  0  0  0  0  0  0  0  0  0  0
   28.6950   15.6960   24.1940 N   0  0  0  0  0  0  0  0  0  0  0  0
   28.9970   15.5290   22.8240 C   0  0  0  0  0  0  0  0  0  0  0  0
   29.6200   16.6080   22.2580 N   0  0  0  0  0  0  0  0  0  0  0  0
   28.7360   14.4490   22.1540 N   0  0  0  0  0  0  0  0  0  0  0  0
   27.9860   13.3420   22.7430 C   0  0  0  0  0  0  0  0  0  0  0  0
   28.3270   12.1670   21.8220 C   0  0  0  0  0  0  0  0  0  0  0  0
   28.5410   13.0080   24.1100 C   0  0  0  0  0  0  0  0  0  0  0  0
   28.3200   14.3700   25.2270 S   0  0  0  0  0  0  0  0  0  0  0  0
   29.3840   14.2760   26.2100 O   0  0  0  0  0  0  0  0  0  0  0  0
   26.9410   14.5680   25.5510 O   0  0  0  0  0  0  0  0  0  0  0  0
   29.8710   16.5880   21.3060 H   0  0  0  0  0  0  0  0  0  0  0  0
   29.8180   17.4050   22.8020 H   0  0  0  0  0  0  0  0  0  0  0  0
   23.5350   12.5810   24.6390 N   0  0  0  0  0  0  0  0  0  0  0  0
   23.2810   13.0340   25.9220 C   0  0  0  0  0  0  0  0  0  0  0  0
   23.7840   14.0270   26.4300 O   0  0  0  0  0  0  0  0  0  0  0  0
   23.1470   11.7060   24.4080 H   0  0  0  0  0  0  0  0  0  0  0  0
   22.2890   12.2410   26.6880 C   0  0  0  0  0  0  0  0  0  0  0  0
   21.1000   11.8600   26.0920 C   0  0  0  0  0  0  0  0  0  0  0  0
   20.2100   11.1230   26.8540 C   0  0  0  0  0  0  0  0  0  0  0  0
   20.5290   10.7940   28.1570 C   0  0  0  0  0  0  0  0  0  0  0  0
   19.6930   10.0890   28.9380 F   0  0  0  0  0  0  0  0  0  0  0  0
   21.7340   11.2240   28.6630 C   0  0  0  0  0  0  0  0  0  0  0  0
   22.6150   11.9450   27.9510 N   0  0  0  0  0  0  0  0  0  0  0  0
  8  9  1  0
  9 10  1  0
 10 11  1  0
 10 12  2  0
 12 13  1  0
 13 14  1  0
 13  1  1  0
  1  2  2  0
  2  3  1  0
  3 21  1  0
 21 22  1  0
 22 23  2  0
 22 25  1  0
 25 26  2  0
 26 27  1  0
 27 28  2  0
 28 29  1  0
 28 30  1  0
 30 31  2  0
  3  4  2  0
  4  5  1  0
  5  6  2  0
  6  7  1  0
 13 15  1  0
 15 16  1  0
 16 17  2  0
 16 18  2  0
 16  9  1  0
  6  1  1  0
 31 25  1  0
 11 19  1  0
 11 20  1  0
 21 24  1  0
M  END
> <meeko>
{"is_sidechain": false}

> <source_group>
BACE1-476

> <source_system>
BACE1_verubecestat

> <source_run>
alternate_476_seed1103_ex32

> <source_seed>
1103

> <vina_pose_rank>
7

> <vina_affinity_kcal_mol>
-8.1310000000000002

> <vina_rmsd_to_crystal_angstrom>
8.2048000000000005

> <minimizedAffinity>
-8.59894

> <CNNscore>
0.0592896864

> <CNNaffinity>
4.5716819763

> <CNN_VS>
0.2710535824

> <CNNaffinity_variance>
1.2066770792

$$$$
BACE1_verubecestat__alternate_476_seed1103_ex32__pose08


 31 33  0  0  0  0  0  0  0  0999 V2000
   25.5940   11.4940   21.3760 C   0  0  0  0  0  0  0  0  0  0  0  0
   25.0830   11.6450   22.6640 C   0  0  0  0  0  0  0  0  0  0  0  0
   23.8310   11.1950   23.0170 C   0  0  0  0  0  0  0  0  0  0  0  0
   23.0130   10.5830   22.0760 C   0  0  0  0  0  0  0  0  0  0  0  0
   23.5050   10.4210   20.7930 C   0  0  0  0  0  0  0  0  0  0  0  0
   24.7760   10.8490   20.4620 C   0  0  0  0  0  0  0  0  0  0  0  0
   25.2470   10.6520   19.2040 F   0  0  0  0  0  0  0  0  0  0  0  0
   25.8600   16.1740   20.9540 C   0  0  0  0  0  0  0  0  0  0  0  0
   26.3640   14.7860   20.9730 N   0  0  0  0  0  0  0  0  0  0  0  0
   26.6390   14.0510   19.7990 C   0  0  0  0  0  0  0  0  0  0  0  0
   26.5440   14.7860   18.6480 N   0  0  0  0  0  0  0  0  0  0  0  0
   26.9770   12.7980   19.7940 N   0  0  0  0  0  0  0  0  0  0  0  0
   26.9830   12.0000   21.0190 C   0  0  0  0  0  0  0  0  0  0  0  0
   27.8630   10.8040   20.6440 C   0  0  0  0  0  0  0  0  0  0  0  0
   27.6970   12.7470   22.1230 C   0  0  0  0  0  0  0  0  0  0  0  0
   26.8240   14.2360   22.5380 S   0  0  0  0  0  0  0  0  0  0  0  0
   27.8140   15.1680   23.0470 O   0  0  0  0  0  0  0  0  0  0  0  0
   25.5790   13.9550   23.1820 O   0  0  0  0  0  0  0  0  0  0  0  0
   26.7180   14.3620   17.7770 H   0  0  0  0  0  0  0  0  0  0  0  0
   26.3030   15.7400   18.6910 H   0  0  0  0  0  0  0  0  0  0  0  0
   23.4360   11.4120   24.3440 N   0  0  0  0  0  0  0  0  0  0  0  0
   22.6560   12.4370   24.8490 C   0  0  0  0  0  0  0  0  0  0  0  0
   22.2830   13.4160   24.2150 O   0  0  0  0  0  0  0  0  0  0  0  0
   23.7540   10.7500   25.0000 H   0  0  0  0  0  0  0  0  0  0  0  0
   22.2370   12.2760   26.2620 C   0  0  0  0  0  0  0  0  0  0  0  0
   21.6530   11.0920   26.6790 C   0  0  0  0  0  0  0  0  0  0  0  0
   21.2790   10.9970   28.0080 C   0  0  0  0  0  0  0  0  0  0  0  0
   21.4970   12.0610   28.8620 C   0  0  0  0  0  0  0  0  0  0  0  0
   21.1430   12.0180   30.1570 F   0  0  0  0  0  0  0  0  0  0  0  0
   22.0790   13.1990   28.3520 C   0  0  0  0  0  0  0  0  0  0  0  0
   22.4480   13.3230   27.0660 N   0  0  0  0  0  0  0  0  0  0  0  0
  8  9  1  0
  9 10  1  0
 10 11  1  0
 10 12  2  0
 12 13  1  0
 13 14  1  0
 13  1  1  0
  1  2  2  0
  2  3  1  0
  3 21  1  0
 21 22  1  0
 22 23  2  0
 22 25  1  0
 25 26  2  0
 26 27  1  0
 27 28  2  0
 28 29  1  0
 28 30  1  0
 30 31  2  0
  3  4  2  0
  4  5  1  0
  5  6  2  0
  6  7  1  0
 13 15  1  0
 15 16  1  0
 16 17  2  0
 16 18  2  0
 16  9  1  0
  6  1  1  0
 31 25  1  0
 11 19  1  0
 11 20  1  0
 21 24  1  0
M  END
> <meeko>
{"is_sidechain": false}

> <source_group>
BACE1-476

> <source_system>
BACE1_verubecestat

> <source_run>
alternate_476_seed1103_ex32

> <source_seed>
1103

> <vina_pose_rank>
8

> <vina_affinity_kcal_mol>
-7.9880000000000004

> <vina_rmsd_to_crystal_angstrom>
7.2872000000000003

> <minimizedAffinity>
-9.05087

> <CNNscore>
0.4847329259

> <CNNaffinity>
6.4831719398

> <CNN_VS>
3.1426069736

> <CNNaffinity_variance>
0.0777277425

$$$$
BACE1_verubecestat__alternate_476_seed1103_ex32__pose09


 31 33  0  0  0  0  0  0  0  0999 V2000
   25.9330   14.0610   22.8450 C   0  0  0  0  0  0  0  0  0  0  0  0
   24.8980   13.9990   23.7760 C   0  0  0  0  0  0  0  0  0  0  0  0
   25.1300   13.9060   25.1300 C   0  0  0  0  0  0  0  0  0  0  0  0
   26.4290   13.8470   25.6180 C   0  0  0  0  0  0  0  0  0  0  0  0
   27.4690   13.9100   24.7080 C   0  0  0  0  0  0  0  0  0  0  0  0
   27.2220   14.0350   23.3560 C   0  0  0  0  0  0  0  0  0  0  0  0
   28.2610   14.1250   22.4860 F   0  0  0  0  0  0  0  0  0  0  0  0
   25.1650    9.9120   20.7590 C   0  0  0  0  0  0  0  0  0  0  0  0
   25.2800   11.3810   20.8480 N   0  0  0  0  0  0  0  0  0  0  0  0
   26.4110   12.0940   20.3900 C   0  0  0  0  0  0  0  0  0  0  0  0
   27.3210   11.3210   19.7210 N   0  0  0  0  0  0  0  0  0  0  0  0
   26.5760   13.3700   20.5580 N   0  0  0  0  0  0  0  0  0  0  0  0
   25.6440   14.1660   21.3550 C   0  0  0  0  0  0  0  0  0  0  0  0
   25.9370   15.5970   20.8960 C   0  0  0  0  0  0  0  0  0  0  0  0
   24.2190   13.8550   20.9550 C   0  0  0  0  0  0  0  0  0  0  0  0
   23.8210   12.1640   21.3200 S   0  0  0  0  0  0  0  0  0  0  0  0
   22.7950   11.7660   20.3730 O   0  0  0  0  0  0  0  0  0  0  0  0
   23.7490   11.9310   22.7290 O   0  0  0  0  0  0  0  0  0  0  0  0
   28.1430   11.7280   19.3630 H   0  0  0  0  0  0  0  0  0  0  0  0
   27.1540   10.3590   19.5970 H   0  0  0  0  0  0  0  0  0  0  0  0
   24.0010   13.8490   25.9570 N   0  0  0  0  0  0  0  0  0  0  0  0
   23.2680   12.7370   26.3330 C   0  0  0  0  0  0  0  0  0  0  0  0
   23.4220   11.6090   25.8850 O   0  0  0  0  0  0  0  0  0  0  0  0
   23.6890   14.7110   26.3180 H   0  0  0  0  0  0  0  0  0  0  0  0
   22.2540   12.9740   27.3890 C   0  0  0  0  0  0  0  0  0  0  0  0
   22.5980   13.6740   28.5330 C   0  0  0  0  0  0  0  0  0  0  0  0
   21.6130   13.8650   29.4860 C   0  0  0  0  0  0  0  0  0  0  0  0
   20.3430   13.3640   29.2720 C   0  0  0  0  0  0  0  0  0  0  0  0
   19.3570   13.5160   30.1730 F   0  0  0  0  0  0  0  0  0  0  0  0
   20.1000   12.6760   28.1060 C   0  0  0  0  0  0  0  0  0  0  0  0
   21.0360   12.4700   27.1650 N   0  0  0  0  0  0  0  0  0  0  0  0
  8  9  1  0
  9 10  1  0
 10 11  1  0
 10 12  2  0
 12 13  1  0
 13 14  1  0
 13  1  1  0
  1  2  2  0
  2  3  1  0
  3 21  1  0
 21 22  1  0
 22 23  2  0
 22 25  1  0
 25 26  2  0
 26 27  1  0
 27 28  2  0
 28 29  1  0
 28 30  1  0
 30 31  2  0
  3  4  2  0
  4  5  1  0
  5  6  2  0
  6  7  1  0
 13 15  1  0
 15 16  1  0
 16 17  2  0
 16 18  2  0
 16  9  1  0
  6  1  1  0
 31 25  1  0
 11 19  1  0
 11 20  1  0
 21 24  1  0
M  END
> <meeko>
{"is_sidechain": false}

> <source_group>
BACE1-476

> <source_system>
BACE1_verubecestat

> <source_run>
alternate_476_seed1103_ex32

> <source_seed>
1103

> <vina_pose_rank>
9

> <vina_affinity_kcal_mol>
-7.5209999999999999

> <vina_rmsd_to_crystal_angstrom>
7.9451999999999998

> <minimizedAffinity>
-8.23319

> <CNNscore>
0.0215341300

> <CNNaffinity>
3.9452502728

> <CNN_VS>
0.0849575326

> <CNNaffinity_variance>
1.8369926214

$$$$
BACE1_verubecestat__alternate_476_seed1103_ex32__pose10


 31 33  0  0  0  0  0  0  0  0999 V2000
   23.9810   13.6320   21.8570 C   0  0  0  0  0  0  0  0  0  0  0  0
   23.2160   13.1490   22.9180 C   0  0  0  0  0  0  0  0  0  0  0  0
   23.3650   13.6160   24.2050 C   0  0  0  0  0  0  0  0  0  0  0  0
   24.3170   14.5850   24.4960 C   0  0  0  0  0  0  0  0  0  0  0  0
   25.0830   15.0780   23.4540 C   0  0  0  0  0  0  0  0  0  0  0  0
   24.9000   14.6240   22.1630 C   0  0  0  0  0  0  0  0  0  0  0  0
   25.6440   15.1450   21.1540 F   0  0  0  0  0  0  0  0  0  0  0  0
   27.1960   10.4400   20.5820 C   0  0  0  0  0  0  0  0  0  0  0  0
   25.9970   11.2890   20.4300 N   0  0  0  0  0  0  0  0  0  0  0  0
   25.9900   12.4830   19.6750 C   0  0  0  0  0  0  0  0  0  0  0  0
   27.1450   12.7030   18.9730 N   0  0  0  0  0  0  0  0  0  0  0  0
   24.9800   13.2950   19.6190 N   0  0  0  0  0  0  0  0  0  0  0  0
   23.7900   13.0990   20.4460 C   0  0  0  0  0  0  0  0  0  0  0  0
   22.7350   13.9500   19.7340 C   0  0  0  0  0  0  0  0  0  0  0  0
   23.3300   11.6600   20.3610 C   0  0  0  0  0  0  0  0  0  0  0  0
   24.5560   10.5690   21.0380 S   0  0  0  0  0  0  0  0  0  0  0  0
   24.3940    9.2950   20.3620 O   0  0  0  0  0  0  0  0  0  0  0  0
   24.6700   10.7190   22.4550 O   0  0  0  0  0  0  0  0  0  0  0  0
   27.2360   13.5100   18.4160 H   0  0  0  0  0  0  0  0  0  0  0  0
   27.8840   12.0550   19.0250 H   0  0  0  0  0  0  0  0  0  0  0  0
   22.5360   13.0450   25.1790 N   0  0  0  0  0  0  0  0  0  0  0  0
   22.7190   11.8630   25.8740 C   0  0  0  0  0  0  0  0  0  0  0  0
   23.5980   11.0410   25.6480 O   0  0  0  0  0  0  0  0  0  0  0  0
   21.7200   13.5500   25.3970 H   0  0  0  0  0  0  0  0  0  0  0  0
   21.7730   11.6340   26.9940 C   0  0  0  0  0  0  0  0  0  0  0  0
   21.8330   12.4310   28.1230 C   0  0  0  0  0  0  0  0  0  0  0  0
   20.9280   12.1720   29.1370 C   0  0  0  0  0  0  0  0  0  0  0  0
   20.0090   11.1500   28.9950 C   0  0  0  0  0  0  0  0  0  0  0  0
   19.1180   10.8560   29.9570 F   0  0  0  0  0  0  0  0  0  0  0  0
   20.0320   10.4080   27.8370 C   0  0  0  0  0  0  0  0  0  0  0  0
   20.9020   10.6320   26.8380 N   0  0  0  0  0  0  0  0  0  0  0  0
  8  9  1  0
  9 10  1  0
 10 11  1  0
 10 12  2  0
 12 13  1  0
 13 14  1  0
 13  1  1  0
  1  2  2  0
  2  3  1  0
  3 21  1  0
 21 22  1  0
 22 23  2  0
 22 25  1  0
 25 26  2  0
 26 27  1  0
 27 28  2  0
 28 29  1  0
 28 30  1  0
 30 31  2  0
  3  4  2  0
  4  5  1  0
  5  6  2  0
  6  7  1  0
 13 15  1  0
 15 16  1  0
 16 17  2  0
 16 18  2  0
 16  9  1  0
  6  1  1  0
 31 25  1  0
 11 19  1  0
 11 20  1  0
 21 24  1  0
M  END
> <meeko>
{"is_sidechain": false}

> <source_group>
BACE1-476

> <source_system>
BACE1_verubecestat

> <source_run>
alternate_476_seed1103_ex32

> <source_seed>
1103

> <vina_pose_rank>
10

> <vina_affinity_kcal_mol>
-7.4329999999999998

> <vina_rmsd_to_crystal_angstrom>
7.5251000000000001

> <minimizedAffinity>
-7.90876

> <CNNscore>
0.0841312557

> <CNNaffinity>
4.9741740227

> <CNN_VS>
0.4184834957

> <CNNaffinity_variance>
1.1859055758

$$$$
BACE1_verubecestat__alternate_476_seed1103_ex32__pose11


 31 33  0  0  0  0  0  0  0  0999 V2000
   27.0680   14.2190   23.2820 C   0  0  0  0  0  0  0  0  0  0  0  0
   25.7460   13.8140   23.4570 C   0  0  0  0  0  0  0  0  0  0  0  0
   25.1670   13.7060   24.7010 C   0  0  0  0  0  0  0  0  0  0  0  0
   25.9030   13.9830   25.8460 C   0  0  0  0  0  0  0  0  0  0  0  0
   27.2170   14.3900   25.6910 C   0  0  0  0  0  0  0  0  0  0  0  0
   27.7750   14.5240   24.4350 C   0  0  0  0  0  0  0  0  0  0  0  0
   29.0570   14.9530   24.3100 F   0  0  0  0  0  0  0  0  0  0  0  0
   28.9270   10.1970   21.6950 C   0  0  0  0  0  0  0  0  0  0  0  0
   28.5250   11.6160   21.6400 N   0  0  0  0  0  0  0  0  0  0  0  0
   29.4360   12.6820   21.8160 C   0  0  0  0  0  0  0  0  0  0  0  0
   30.7450   12.2870   21.8900 N   0  0  0  0  0  0  0  0  0  0  0  0
   29.0840   13.9290   21.8780 N   0  0  0  0  0  0  0  0  0  0  0  0
   27.6780   14.3310   21.8940 C   0  0  0  0  0  0  0  0  0  0  0  0
   27.7400   15.8090   21.4980 C   0  0  0  0  0  0  0  0  0  0  0  0
   26.9210   13.6110   20.8010 C   0  0  0  0  0  0  0  0  0  0  0  0
   26.9110   11.8600   21.0930 S   0  0  0  0  0  0  0  0  0  0  0  0
   26.7970   11.2240   19.7930 O   0  0  0  0  0  0  0  0  0  0  0  0
   26.1100   11.5190   22.2280 O   0  0  0  0  0  0  0  0  0  0  0  0
   31.4550   12.9580   22.0120 H   0  0  0  0  0  0  0  0  0  0  0  0
   30.9760   11.3330   21.8200 H   0  0  0  0  0  0  0  0  0  0  0  0
   23.8310   13.2860   24.7370 N   0  0  0  0  0  0  0  0  0  0  0  0
   23.3370   12.0210   25.0010 C   0  0  0  0  0  0  0  0  0  0  0  0
   24.0180   11.0100   25.1230 O   0  0  0  0  0  0  0  0  0  0  0  0
   23.1570   13.9800   24.5520 H   0  0  0  0  0  0  0  0  0  0  0  0
   21.8670   11.9380   25.1760 C   0  0  0  0  0  0  0  0  0  0  0  0
   21.2670   10.7130   25.4100 C   0  0  0  0  0  0  0  0  0  0  0  0
   19.8920   10.6940   25.5640 C   0  0  0  0  0  0  0  0  0  0  0  0
   19.1740   11.8710   25.4830 C   0  0  0  0  0  0  0  0  0  0  0  0
   17.8370   11.9010   25.6160 F   0  0  0  0  0  0  0  0  0  0  0  0
   19.8600   13.0400   25.2410 C   0  0  0  0  0  0  0  0  0  0  0  0
   21.1930   13.0890   25.0820 N   0  0  0  0  0  0  0  0  0  0  0  0
  8  9  1  0
  9 10  1  0
 10 11  1  0
 10 12  2  0
 12 13  1  0
 13 14  1  0
 13  1  1  0
  1  2  2  0
  2  3  1  0
  3 21  1  0
 21 22  1  0
 22 23  2  0
 22 25  1  0
 25 26  2  0
 26 27  1  0
 27 28  2  0
 28 29  1  0
 28 30  1  0
 30 31  2  0
  3  4  2  0
  4  5  1  0
  5  6  2  0
  6  7  1  0
 13 15  1  0
 15 16  1  0
 16 17  2  0
 16 18  2  0
 16  9  1  0
  6  1  1  0
 31 25  1  0
 11 19  1  0
 11 20  1  0
 21 24  1  0
M  END
> <meeko>
{"is_sidechain": false}

> <source_group>
BACE1-476

> <source_system>
BACE1_verubecestat

> <source_run>
alternate_476_seed1103_ex32

> <source_seed>
1103

> <vina_pose_rank>
11

> <vina_affinity_kcal_mol>
-7.2750000000000004

> <vina_rmsd_to_crystal_angstrom>
8.3609000000000009

> <minimizedAffinity>
-7.89711

> <CNNscore>
0.0157182943

> <CNNaffinity>
3.9712238312

> <CNN_VS>
0.0624208637

> <CNNaffinity_variance>
1.4643133879

$$$$
BACE1_verubecestat__alternate_476_seed1103_ex32__pose12


 31 33  0  0  0  0  0  0  0  0999 V2000
   28.0760   13.5380   23.6600 C   0  0  0  0  0  0  0  0  0  0  0  0
   26.7620   13.1730   23.9490 C   0  0  0  0  0  0  0  0  0  0  0  0
   26.1660   13.4610   25.1560 C   0  0  0  0  0  0  0  0  0  0  0  0
   26.8760   14.1200   26.1510 C   0  0  0  0  0  0  0  0  0  0  0  0
   28.1810   14.4930   25.8810 C   0  0  0  0  0  0  0  0  0  0  0  0
   28.7560   14.2250   24.6540 C   0  0  0  0  0  0  0  0  0  0  0  0
   30.0280   14.6290   24.4040 F   0  0  0  0  0  0  0  0  0  0  0  0
   26.3060   16.0170   20.0720 C   0  0  0  0  0  0  0  0  0  0  0  0
   27.1980   15.0460   20.7360 N   0  0  0  0  0  0  0  0  0  0  0  0
   27.0020   13.6490   20.6680 C   0  0  0  0  0  0  0  0  0  0  0  0
   26.0060   13.2690   19.8090 N   0  0  0  0  0  0  0  0  0  0  0  0
   27.7100   12.7870   21.3320 N   0  0  0  0  0  0  0  0  0  0  0  0
   28.7060   13.2080   22.3160 C   0  0  0  0  0  0  0  0  0  0  0  0
   29.5800   11.9600   22.4730 C   0  0  0  0  0  0  0  0  0  0  0  0
   29.5840   14.2940   21.7350 C   0  0  0  0  0  0  0  0  0  0  0  0
   28.6300   15.7490   21.3820 S   0  0  0  0  0  0  0  0  0  0  0  0
   29.3040   16.4310   20.2920 O   0  0  0  0  0  0  0  0  0  0  0  0
   28.1860   16.3910   22.5800 O   0  0  0  0  0  0  0  0  0  0  0  0
   25.7940   12.3140   19.6930 H   0  0  0  0  0  0  0  0  0  0  0  0
   25.5010   13.9500   19.3080 H   0  0  0  0  0  0  0  0  0  0  0  0
   24.8410   13.0360   25.3190 N   0  0  0  0  0  0  0  0  0  0  0  0
   23.7470   13.3140   24.5190 C   0  0  0  0  0  0  0  0  0  0  0  0
   23.7400   14.1050   23.5850 O   0  0  0  0  0  0  0  0  0  0  0  0
   24.6670   12.4650   26.1020 H   0  0  0  0  0  0  0  0  0  0  0  0
   22.5190   12.5440   24.8360 C   0  0  0  0  0  0  0  0  0  0  0  0
   22.5340   11.1620   24.7700 C   0  0  0  0  0  0  0  0  0  0  0  0
   21.3610   10.4940   25.0740 C   0  0  0  0  0  0  0  0  0  0  0  0
   20.2340   11.2110   25.4290 C   0  0  0  0  0  0  0  0  0  0  0  0
   19.0700   10.6070   25.7230 F   0  0  0  0  0  0  0  0  0  0  0  0
   20.3160   12.5840   25.4610 C   0  0  0  0  0  0  0  0  0  0  0  0
   21.4390   13.2600   25.1660 N   0  0  0  0  0  0  0  0  0  0  0  0
  8  9  1  0
  9 10  1  0
 10 11  1  0
 10 12  2  0
 12 13  1  0
 13 14  1  0
 13  1  1  0
  1  2  2  0
  2  3  1  0
  3 21  1  0
 21 22  1  0
 22 23  2  0
 22 25  1  0
 25 26  2  0
 26 27  1  0
 27 28  2  0
 28 29  1  0
 28 30  1  0
 30 31  2  0
  3  4  2  0
  4  5  1  0
  5  6  2  0
  6  7  1  0
 13 15  1  0
 15 16  1  0
 16 17  2  0
 16 18  2  0
 16  9  1  0
  6  1  1  0
 31 25  1  0
 11 19  1  0
 11 20  1  0
 21 24  1  0
M  END
> <meeko>
{"is_sidechain": false}

> <source_group>
BACE1-476

> <source_system>
BACE1_verubecestat

> <source_run>
alternate_476_seed1103_ex32

> <source_seed>
1103

> <vina_pose_rank>
12

> <vina_affinity_kcal_mol>
-7.1029999999999998

> <vina_rmsd_to_crystal_angstrom>
8.3552

> <minimizedAffinity>
-7.29435

> <CNNscore>
0.0104313847

> <CNNaffinity>
3.6377351284

> <CNN_VS>
0.0379466154

> <CNNaffinity_variance>
1.7340229750

$$$$
BACE1_verubecestat__alternate_476_seed1103_ex32__pose13


 31 33  0  0  0  0  0  0  0  0999 V2000
   18.4330   11.9980   26.2790 C   0  0  0  0  0  0  0  0  0  0  0  0
   19.4850   12.4500   25.4850 C   0  0  0  0  0  0  0  0  0  0  0  0
   20.7440   12.6790   25.9910 C   0  0  0  0  0  0  0  0  0  0  0  0
   21.0050   12.4840   27.3420 C   0  0  0  0  0  0  0  0  0  0  0  0
   19.9730   12.0330   28.1450 C   0  0  0  0  0  0  0  0  0  0  0  0
   18.7230   11.7760   27.6160 C   0  0  0  0  0  0  0  0  0  0  0  0
   17.7350   11.3050   28.4200 F   0  0  0  0  0  0  0  0  0  0  0  0
   15.1610   15.0410   27.7580 C   0  0  0  0  0  0  0  0  0  0  0  0
   15.7040   13.9090   26.9810 N   0  0  0  0  0  0  0  0  0  0  0  0
   15.4830   12.5580   27.3310 C   0  0  0  0  0  0  0  0  0  0  0  0
   14.5990   12.3890   28.3620 N   0  0  0  0  0  0  0  0  0  0  0  0
   16.0400   11.5560   26.7240 N   0  0  0  0  0  0  0  0  0  0  0  0
   17.0530   11.7510   25.6880 C   0  0  0  0  0  0  0  0  0  0  0  0
   17.0620   10.4050   24.9590 C   0  0  0  0  0  0  0  0  0  0  0  0
   16.5860   12.7910   24.6950 C   0  0  0  0  0  0  0  0  0  0  0  0
   16.4070   14.3730   25.4800 S   0  0  0  0  0  0  0  0  0  0  0  0
   15.3920   15.0940   24.7330 O   0  0  0  0  0  0  0  0  0  0  0  0
   17.6730   14.9240   25.8510 O   0  0  0  0  0  0  0  0  0  0  0  0
   14.3800   11.4830   28.6790 H   0  0  0  0  0  0  0  0  0  0  0  0
   14.1820   13.1730   28.7870 H   0  0  0  0  0  0  0  0  0  0  0  0
   21.7120   13.1350   25.0870 N   0  0  0  0  0  0  0  0  0  0  0  0
   22.7140   12.4100   24.4660 C   0  0  0  0  0  0  0  0  0  0  0  0
   23.0000   11.2460   24.7160 O   0  0  0  0  0  0  0  0  0  0  0  0
   21.6740   14.0930   24.8630 H   0  0  0  0  0  0  0  0  0  0  0  0
   23.4480   13.1310   23.3980 C   0  0  0  0  0  0  0  0  0  0  0  0
   23.4040   12.6660   22.0950 C   0  0  0  0  0  0  0  0  0  0  0  0
   24.1090   13.3760   21.1390 C   0  0  0  0  0  0  0  0  0  0  0  0
   24.8180   14.5040   21.5040 C   0  0  0  0  0  0  0  0  0  0  0  0
   25.5250   15.2200   20.6130 F   0  0  0  0  0  0  0  0  0  0  0  0
   24.8070   14.8840   22.8270 C   0  0  0  0  0  0  0  0  0  0  0  0
   24.1370   14.2120   23.7780 N   0  0  0  0  0  0  0  0  0  0  0  0
  8  9  1  0
  9 10  1  0
 10 11  1  0
 10 12  2  0
 12 13  1  0
 13 14  1  0
 13  1  1  0
  1  2  2  0
  2  3  1  0
  3 21  1  0
 21 22  1  0
 22 23  2  0
 22 25  1  0
 25 26  2  0
 26 27  1  0
 27 28  2  0
 28 29  1  0
 28 30  1  0
 30 31  2  0
  3  4  2  0
  4  5  1  0
  5  6  2  0
  6  7  1  0
 13 15  1  0
 15 16  1  0
 16 17  2  0
 16 18  2  0
 16  9  1  0
  6  1  1  0
 31 25  1  0
 11 19  1  0
 11 20  1  0
 21 24  1  0
M  END
> <meeko>
{"is_sidechain": false}

> <source_group>
BACE1-476

> <source_system>
BACE1_verubecestat

> <source_run>
alternate_476_seed1103_ex32

> <source_seed>
1103

> <vina_pose_rank>
13

> <vina_affinity_kcal_mol>
-7.0359999999999996

> <vina_rmsd_to_crystal_angstrom>
7.6593999999999998

> <minimizedAffinity>
-7.61143

> <CNNscore>
0.1117665842

> <CNNaffinity>
5.2860903740

> <CNN_VS>
0.5908082724

> <CNNaffinity_variance>
0.0949363187

$$$$
BACE1_verubecestat__alternate_476_seed1103_ex32__pose14


 31 33  0  0  0  0  0  0  0  0999 V2000
   26.9550   14.5050   20.6110 C   0  0  0  0  0  0  0  0  0  0  0  0
   28.1620   15.1070   20.9630 C   0  0  0  0  0  0  0  0  0  0  0  0
   28.4680   16.4030   20.6130 C   0  0  0  0  0  0  0  0  0  0  0  0
   27.5750   17.1590   19.8640 C   0  0  0  0  0  0  0  0  0  0  0  0
   26.3700   16.5780   19.5090 C   0  0  0  0  0  0  0  0  0  0  0  0
   26.0630   15.2880   19.8940 C   0  0  0  0  0  0  0  0  0  0  0  0
   24.8620   14.7520   19.5580 F   0  0  0  0  0  0  0  0  0  0  0  0
   27.2620   13.7300   25.2430 C   0  0  0  0  0  0  0  0  0  0  0  0
   27.0000   13.3940   23.8300 N   0  0  0  0  0  0  0  0  0  0  0  0
   27.9110   12.6710   23.0280 C   0  0  0  0  0  0  0  0  0  0  0  0
   28.9860   12.1770   23.7170 N   0  0  0  0  0  0  0  0  0  0  0  0
   27.7460   12.4610   21.7580 N   0  0  0  0  0  0  0  0  0  0  0  0
   26.6450   13.0720   21.0160 C   0  0  0  0  0  0  0  0  0  0  0  0
   26.5630   12.2090   19.7530 C   0  0  0  0  0  0  0  0  0  0  0  0
   25.3450   12.8850   21.7660 C   0  0  0  0  0  0  0  0  0  0  0  0
   25.3910   13.7380   23.3220 S   0  0  0  0  0  0  0  0  0  0  0  0
   24.4970   13.0220   24.2140 O   0  0  0  0  0  0  0  0  0  0  0  0
   25.3840   15.1570   23.1460 O   0  0  0  0  0  0  0  0  0  0  0  0
   29.6770   11.6580   23.2450 H   0  0  0  0  0  0  0  0  0  0  0  0
   29.0690   12.3410   24.6840 H   0  0  0  0  0  0  0  0  0  0  0  0
   29.7160   16.8870   21.0280 N   0  0  0  0  0  0  0  0  0  0  0  0
   30.1490   17.1480   22.3150 C   0  0  0  0  0  0  0  0  0  0  0  0
   29.4440   17.1160   23.3160 O   0  0  0  0  0  0  0  0  0  0  0  0
   30.3670   17.0630   20.3110 H   0  0  0  0  0  0  0  0  0  0  0  0
   31.5950   17.4520   22.4470 C   0  0  0  0  0  0  0  0  0  0  0  0
   32.1540   17.6180   23.7030 C   0  0  0  0  0  0  0  0  0  0  0  0
   33.5070   17.9020   23.7670 C   0  0  0  0  0  0  0  0  0  0  0  0
   34.2440   18.0060   22.6040 C   0  0  0  0  0  0  0  0  0  0  0  0
   35.5580   18.2890   22.6160 F   0  0  0  0  0  0  0  0  0  0  0  0
   33.5970   17.8300   21.4020 C   0  0  0  0  0  0  0  0  0  0  0  0
   32.2850   17.5590   21.3070 N   0  0  0  0  0  0  0  0  0  0  0  0
  8  9  1  0
  9 10  1  0
 10 11  1  0
 10 12  2  0
 12 13  1  0
 13 14  1  0
 13  1  1  0
  1  2  2  0
  2  3  1  0
  3 21  1  0
 21 22  1  0
 22 23  2  0
 22 25  1  0
 25 26  2  0
 26 27  1  0
 27 28  2  0
 28 29  1  0
 28 30  1  0
 30 31  2  0
  3  4  2  0
  4  5  1  0
  5  6  2  0
  6  7  1  0
 13 15  1  0
 15 16  1  0
 16 17  2  0
 16 18  2  0
 16  9  1  0
  6  1  1  0
 31 25  1  0
 11 19  1  0
 11 20  1  0
 21 24  1  0
M  END
> <meeko>
{"is_sidechain": false}

> <source_group>
BACE1-476

> <source_system>
BACE1_verubecestat

> <source_run>
alternate_476_seed1103_ex32

> <source_seed>
1103

> <vina_pose_rank>
14

> <vina_affinity_kcal_mol>
-7.0039999999999996

> <vina_rmsd_to_crystal_angstrom>
6.9516

> <minimizedAffinity>
-6.89695

> <CNNscore>
0.0208366569

> <CNNaffinity>
3.7695224285

> <CNN_VS>
0.0785442442

> <CNNaffinity_variance>
1.1072350740

$$$$
BACE1_verubecestat__alternate_476_seed1103_ex32__pose15


 31 33  0  0  0  0  0  0  0  0999 V2000
   25.1750   13.4470   23.2200 C   0  0  0  0  0  0  0  0  0  0  0  0
   26.1570   14.1180   22.4920 C   0  0  0  0  0  0  0  0  0  0  0  0
   27.4130   14.3620   22.9990 C   0  0  0  0  0  0  0  0  0  0  0  0
   27.7410   13.9580   24.2870 C   0  0  0  0  0  0  0  0  0  0  0  0
   26.7810   13.2870   25.0230 C   0  0  0  0  0  0  0  0  0  0  0  0
   25.5350   13.0220   24.4890 C   0  0  0  0  0  0  0  0  0  0  0  0
   24.6200   12.3360   25.2210 F   0  0  0  0  0  0  0  0  0  0  0  0
   25.2760   11.6700   18.8630 C   0  0  0  0  0  0  0  0  0  0  0  0
   24.6580   12.1460   20.1160 N   0  0  0  0  0  0  0  0  0  0  0  0
   24.0540   13.4170   20.2430 C   0  0  0  0  0  0  0  0  0  0  0  0
   23.9570   14.1060   19.0640 N   0  0  0  0  0  0  0  0  0  0  0  0
   23.6040   13.8930   21.3620 N   0  0  0  0  0  0  0  0  0  0  0  0
   23.7970   13.1910   22.6290 C   0  0  0  0  0  0  0  0  0  0  0  0
   22.7440   13.8280   23.5390 C   0  0  0  0  0  0  0  0  0  0  0  0
   23.4280   11.7320   22.4760 C   0  0  0  0  0  0  0  0  0  0  0  0
   24.5120   10.9280   21.3240 S   0  0  0  0  0  0  0  0  0  0  0  0
   23.7580    9.8330   20.7410 O   0  0  0  0  0  0  0  0  0  0  0  0
   25.8370   10.8030   21.8460 O   0  0  0  0  0  0  0  0  0  0  0  0
   23.5510   15.0020   19.0490 H   0  0  0  0  0  0  0  0  0  0  0  0
   24.2940   13.7050   18.2300 H   0  0  0  0  0  0  0  0  0  0  0  0
   28.3050   15.0480   22.1650 N   0  0  0  0  0  0  0  0  0  0  0  0
   29.1050   16.1330   22.4750 C   0  0  0  0  0  0  0  0  0  0  0  0
   29.0640   16.7620   23.5240 O   0  0  0  0  0  0  0  0  0  0  0  0
   28.3700   14.7160   21.2410 H   0  0  0  0  0  0  0  0  0  0  0  0
   30.0990   16.5040   21.4370 C   0  0  0  0  0  0  0  0  0  0  0  0
   29.6750   17.0610   20.2430 C   0  0  0  0  0  0  0  0  0  0  0  0
   30.6440   17.3860   19.3100 C   0  0  0  0  0  0  0  0  0  0  0  0
   31.9770   17.1530   19.5930 C   0  0  0  0  0  0  0  0  0  0  0  0
   32.9520   17.4440   18.7150 F   0  0  0  0  0  0  0  0  0  0  0  0
   32.2980   16.5900   20.8070 C   0  0  0  0  0  0  0  0  0  0  0  0
   31.3800   16.2590   21.7290 N   0  0  0  0  0  0  0  0  0  0  0  0
  8  9  1  0
  9 10  1  0
 10 11  1  0
 10 12  2  0
 12 13  1  0
 13 14  1  0
 13  1  1  0
  1  2  2  0
  2  3  1  0
  3 21  1  0
 21 22  1  0
 22 23  2  0
 22 25  1  0
 25 26  2  0
 26 27  1  0
 27 28  2  0
 28 29  1  0
 28 30  1  0
 30 31  2  0
  3  4  2  0
  4  5  1  0
  5  6  2  0
  6  7  1  0
 13 15  1  0
 15 16  1  0
 16 17  2  0
 16 18  2  0
 16  9  1  0
  6  1  1  0
 31 25  1  0
 11 19  1  0
 11 20  1  0
 21 24  1  0
M  END
> <meeko>
{"is_sidechain": false}

> <source_group>
BACE1-476

> <source_system>
BACE1_verubecestat

> <source_run>
alternate_476_seed1103_ex32

> <source_seed>
1103

> <vina_pose_rank>
15

> <vina_affinity_kcal_mol>
-6.9580000000000002

> <vina_rmsd_to_crystal_angstrom>
6.399

> <minimizedAffinity>
-7.08450

> <CNNscore>
0.0723396838

> <CNNaffinity>
4.5739884377

> <CNN_VS>
0.3308808804

> <CNNaffinity_variance>
1.0039176941

$$$$
BACE1_verubecestat__alternate_476_seed1103_ex32__pose16


 31 33  0  0  0  0  0  0  0  0999 V2000
   17.8390   13.0510   27.6470 C   0  0  0  0  0  0  0  0  0  0  0  0
   18.7320   13.2550   26.5960 C   0  0  0  0  0  0  0  0  0  0  0  0
   19.6530   12.3050   26.2180 C   0  0  0  0  0  0  0  0  0  0  0  0
   19.7390   11.0970   26.8990 C   0  0  0  0  0  0  0  0  0  0  0  0
   18.8570   10.8760   27.9430 C   0  0  0  0  0  0  0  0  0  0  0  0
   17.9170   11.8250   28.2900 C   0  0  0  0  0  0  0  0  0  0  0  0
   17.0440   11.5710   29.2990 F   0  0  0  0  0  0  0  0  0  0  0  0
   14.5560   13.8570   24.3720 C   0  0  0  0  0  0  0  0  0  0  0  0
   15.2390   14.0150   25.6720 N   0  0  0  0  0  0  0  0  0  0  0  0
   16.0840   15.1070   25.9700 C   0  0  0  0  0  0  0  0  0  0  0  0
   16.0940   16.0810   25.0070 N   0  0  0  0  0  0  0  0  0  0  0  0
   16.7750   15.2070   27.0630 N   0  0  0  0  0  0  0  0  0  0  0  0
   16.8300   14.1190   28.0390 C   0  0  0  0  0  0  0  0  0  0  0  0
   17.3220   14.8220   29.3080 C   0  0  0  0  0  0  0  0  0  0  0  0
   15.4360   13.6090   28.3270 C   0  0  0  0  0  0  0  0  0  0  0  0
   14.7160   12.8950   26.8700 S   0  0  0  0  0  0  0  0  0  0  0  0
   13.2780   13.0470   27.0020 O   0  0  0  0  0  0  0  0  0  0  0  0
   15.3650   11.6750   26.5040 O   0  0  0  0  0  0  0  0  0  0  0  0
   16.6530   16.8830   25.1250 H   0  0  0  0  0  0  0  0  0  0  0  0
   15.5430   15.9790   24.1980 H   0  0  0  0  0  0  0  0  0  0  0  0
   20.4940   12.6370   25.1480 N   0  0  0  0  0  0  0  0  0  0  0  0
   21.8380   12.9650   25.1840 C   0  0  0  0  0  0  0  0  0  0  0  0
   22.4920   13.1450   26.2020 O   0  0  0  0  0  0  0  0  0  0  0  0
   20.0760   12.6370   24.2570 H   0  0  0  0  0  0  0  0  0  0  0  0
   22.5020   13.0600   23.8610 C   0  0  0  0  0  0  0  0  0  0  0  0
   22.9130   11.9100   23.2090 C   0  0  0  0  0  0  0  0  0  0  0  0
   23.5290   12.0580   21.9790 C   0  0  0  0  0  0  0  0  0  0  0  0
   23.7080   13.3200   21.4460 C   0  0  0  0  0  0  0  0  0  0  0  0
   24.3090   13.5130   20.2600 F   0  0  0  0  0  0  0  0  0  0  0  0
   23.2700   14.4040   22.1730 C   0  0  0  0  0  0  0  0  0  0  0  0
   22.6750   14.2930   23.3720 N   0  0  0  0  0  0  0  0  0  0  0  0
  8  9  1  0
  9 10  1  0
 10 11  1  0
 10 12  2  0
 12 13  1  0
 13 14  1  0
 13  1  1  0
  1  2  2  0
  2  3  1  0
  3 21  1  0
 21 22  1  0
 22 23  2  0
 22 25  1  0
 25 26  2  0
 26 27  1  0
 27 28  2  0
 28 29  1  0
 28 30  1  0
 30 31  2  0
  3  4  2  0
  4  5  1  0
  5  6  2  0
  6  7  1  0
 13 15  1  0
 15 16  1  0
 16 17  2  0
 16 18  2  0
 16  9  1  0
  6  1  1  0
 31 25  1  0
 11 19  1  0
 11 20  1  0
 21 24  1  0
M  END
> <meeko>
{"is_sidechain": false}

> <source_group>
BACE1-476

> <source_system>
BACE1_verubecestat

> <source_run>
alternate_476_seed1103_ex32

> <source_seed>
1103

> <vina_pose_rank>
16

> <vina_affinity_kcal_mol>
-6.8579999999999997

> <vina_rmsd_to_crystal_angstrom>
8.7630999999999997

> <minimizedAffinity>
-6.88574

> <CNNscore>
0.0394428708

> <CNNaffinity>
4.6233482361

> <CNN_VS>
0.1823581308

> <CNNaffinity_variance>
0.5467466712

$$$$
BACE1_verubecestat__alternate_476_seed1103_ex32__pose17


 31 33  0  0  0  0  0  0  0  0999 V2000
   19.5060   11.5900   26.7040 C   0  0  0  0  0  0  0  0  0  0  0  0
   18.6670   12.5500   27.2680 C   0  0  0  0  0  0  0  0  0  0  0  0
   17.4120   12.8160   26.7700 C   0  0  0  0  0  0  0  0  0  0  0  0
   16.9400   12.1360   25.6530 C   0  0  0  0  0  0  0  0  0  0  0  0
   17.7580   11.1770   25.0830 C   0  0  0  0  0  0  0  0  0  0  0  0
   19.0020   10.8990   25.6130 C   0  0  0  0  0  0  0  0  0  0  0  0
   19.7730    9.9320   25.0520 F   0  0  0  0  0  0  0  0  0  0  0  0
   22.9020   11.3370   23.4560 C   0  0  0  0  0  0  0  0  0  0  0  0
   22.3270   11.3340   24.8160 N   0  0  0  0  0  0  0  0  0  0  0  0
   22.0990   10.1510   25.5530 C   0  0  0  0  0  0  0  0  0  0  0  0
   22.5960    9.0220   24.9590 N   0  0  0  0  0  0  0  0  0  0  0  0
   21.4970   10.1210   26.7010 N   0  0  0  0  0  0  0  0  0  0  0  0
   20.8870   11.3170   27.2800 C   0  0  0  0  0  0  0  0  0  0  0  0
   20.7420   10.9470   28.7590 C   0  0  0  0  0  0  0  0  0  0  0  0
   21.8520   12.4800   27.2070 C   0  0  0  0  0  0  0  0  0  0  0  0
   22.1990   12.9010   25.5180 S   0  0  0  0  0  0  0  0  0  0  0  0
   23.5270   13.4890   25.5030 O   0  0  0  0  0  0  0  0  0  0  0  0
   21.0600   13.4730   24.8720 O   0  0  0  0  0  0  0  0  0  0  0  0
   22.4860    8.1470   25.3960 H   0  0  0  0  0  0  0  0  0  0  0  0
   23.0640    9.0850   24.0950 H   0  0  0  0  0  0  0  0  0  0  0  0
   16.6720   13.8070   27.4270 N   0  0  0  0  0  0  0  0  0  0  0  0
   16.1030   13.7580   28.6880 C   0  0  0  0  0  0  0  0  0  0  0  0
   16.0480   12.7610   29.3970 O   0  0  0  0  0  0  0  0  0  0  0  0
   16.5410   14.6460   26.9290 H   0  0  0  0  0  0  0  0  0  0  0  0
   15.5630   15.0440   29.1890 C   0  0  0  0  0  0  0  0  0  0  0  0
   15.3880   16.1070   28.3190 C   0  0  0  0  0  0  0  0  0  0  0  0
   14.8830   17.2840   28.8410 C   0  0  0  0  0  0  0  0  0  0  0  0
   14.5700   17.3630   30.1850 C   0  0  0  0  0  0  0  0  0  0  0  0
   14.0850   18.4870   30.7380 F   0  0  0  0  0  0  0  0  0  0  0  0
   14.7840   16.2540   30.9710 C   0  0  0  0  0  0  0  0  0  0  0  0
   15.2790   15.0990   30.4950 N   0  0  0  0  0  0  0  0  0  0  0  0
  8  9  1  0
  9 10  1  0
 10 11  1  0
 10 12  2  0
 12 13  1  0
 13 14  1  0
 13  1  1  0
  1  2  2  0
  2  3  1  0
  3 21  1  0
 21 22  1  0
 22 23  2  0
 22 25  1  0
 25 26  2  0
 26 27  1  0
 27 28  2  0
 28 29  1  0
 28 30  1  0
 30 31  2  0
  3  4  2  0
  4  5  1  0
  5  6  2  0
  6  7  1  0
 13 15  1  0
 15 16  1  0
 16 17  2  0
 16 18  2  0
 16  9  1  0
  6  1  1  0
 31 25  1  0
 11 19  1  0
 11 20  1  0
 21 24  1  0
M  END
> <meeko>
{"is_sidechain": false}

> <source_group>
BACE1-476

> <source_system>
BACE1_verubecestat

> <source_run>
alternate_476_seed1103_ex32

> <source_seed>
1103

> <vina_pose_rank>
17

> <vina_affinity_kcal_mol>
-6.7249999999999996

> <vina_rmsd_to_crystal_angstrom>
11.4148

> <minimizedAffinity>
-7.95889

> <CNNscore>
0.5557257533

> <CNNaffinity>
5.9189038277

> <CNN_VS>
3.2892873287

> <CNNaffinity_variance>
0.1268678904

$$$$
BACE1_verubecestat__alternate_476_seed1103_ex32__pose18


 31 33  0  0  0  0  0  0  0  0999 V2000
   24.3730   12.3190   22.4810 C   0  0  0  0  0  0  0  0  0  0  0  0
   25.1220   13.1990   23.2610 C   0  0  0  0  0  0  0  0  0  0  0  0
   25.1510   13.1230   24.6350 C   0  0  0  0  0  0  0  0  0  0  0  0
   24.4000   12.1620   25.3020 C   0  0  0  0  0  0  0  0  0  0  0  0
   23.6530   11.2790   24.5430 C   0  0  0  0  0  0  0  0  0  0  0  0
   23.6600   11.3470   23.1640 C   0  0  0  0  0  0  0  0  0  0  0  0
   22.9410   10.4490   22.4420 F   0  0  0  0  0  0  0  0  0  0  0  0
   28.0420   14.6870   20.7260 C   0  0  0  0  0  0  0  0  0  0  0  0
   26.7950   13.8980   20.6830 N   0  0  0  0  0  0  0  0  0  0  0  0
   25.5270   14.4750   20.4460 C   0  0  0  0  0  0  0  0  0  0  0  0
   25.5750   15.8020   20.1100 N   0  0  0  0  0  0  0  0  0  0  0  0
   24.4110   13.8170   20.5120 N   0  0  0  0  0  0  0  0  0  0  0  0
   24.3650   12.4270   20.9640 C   0  0  0  0  0  0  0  0  0  0  0  0
   23.0100   11.9420   20.4410 C   0  0  0  0  0  0  0  0  0  0  0  0
   25.4290   11.6160   20.2580 C   0  0  0  0  0  0  0  0  0  0  0  0
   27.0500   12.1960   20.6920 S   0  0  0  0  0  0  0  0  0  0  0  0
   27.9150   11.8840   19.5680 O   0  0  0  0  0  0  0  0  0  0  0  0
   27.3670   11.9040   22.0550 O   0  0  0  0  0  0  0  0  0  0  0  0
   24.7410   16.2920   19.9260 H   0  0  0  0  0  0  0  0  0  0  0  0
   26.4420   16.2640   20.0520 H   0  0  0  0  0  0  0  0  0  0  0  0
   25.9420   14.0680   25.3000 N   0  0  0  0  0  0  0  0  0  0  0  0
   27.3220   14.1330   25.3710 C   0  0  0  0  0  0  0  0  0  0  0  0
   28.0900   13.2740   24.9560 O   0  0  0  0  0  0  0  0  0  0  0  0
   25.4540   14.7770   25.7770 H   0  0  0  0  0  0  0  0  0  0  0  0
   27.8680   15.3730   25.9730 C   0  0  0  0  0  0  0  0  0  0  0  0
   28.0980   16.4840   25.1790 C   0  0  0  0  0  0  0  0  0  0  0  0
   28.6100   17.6130   25.7930 C   0  0  0  0  0  0  0  0  0  0  0  0
   28.8670   17.6020   27.1500 C   0  0  0  0  0  0  0  0  0  0  0  0
   29.3730   18.6720   27.7880 F   0  0  0  0  0  0  0  0  0  0  0  0
   28.6110   16.4470   27.8540 C   0  0  0  0  0  0  0  0  0  0  0  0
   28.1200   15.3340   27.2860 N   0  0  0  0  0  0  0  0  0  0  0  0
  8  9  1  0
  9 10  1  0
 10 11  1  0
 10 12  2  0
 12 13  1  0
 13 14  1  0
 13  1  1  0
  1  2  2  0
  2  3  1  0
  3 21  1  0
 21 22  1  0
 22 23  2  0
 22 25  1  0
 25 26  2  0
 26 27  1  0
 27 28  2  0
 28 29  1  0
 28 30  1  0
 30 31  2  0
  3  4  2  0
  4  5  1  0
  5  6  2  0
  6  7  1  0
 13 15  1  0
 15 16  1  0
 16 17  2  0
 16 18  2  0
 16  9  1  0
  6  1  1  0
 31 25  1  0
 11 19  1  0
 11 20  1  0
 21 24  1  0
M  END
> <meeko>
{"is_sidechain": false}

> <source_group>
BACE1-476

> <source_system>
BACE1_verubecestat

> <source_run>
alternate_476_seed1103_ex32

> <source_seed>
1103

> <vina_pose_rank>
18

> <vina_affinity_kcal_mol>
-6.6159999999999997

> <vina_rmsd_to_crystal_angstrom>
6.6692999999999998

> <minimizedAffinity>
-7.65606

> <CNNscore>
0.0411667638

> <CNNaffinity>
4.8759856224

> <CNN_VS>
0.2007285506

> <CNNaffinity_variance>
0.4256322086

$$$$
BACE1_verubecestat__alternate_476_seed1103_ex32__pose19


 31 33  0  0  0  0  0  0  0  0999 V2000
   24.4260   13.2880   23.1350 C   0  0  0  0  0  0  0  0  0  0  0  0
   23.1310   13.1520   23.6330 C   0  0  0  0  0  0  0  0  0  0  0  0
   22.8500   13.2110   24.9790 C   0  0  0  0  0  0  0  0  0  0  0  0
   23.8720   13.3880   25.9040 C   0  0  0  0  0  0  0  0  0  0  0  0
   25.1630   13.5270   25.4270 C   0  0  0  0  0  0  0  0  0  0  0  0
   25.4260   13.4990   24.0720 C   0  0  0  0  0  0  0  0  0  0  0  0
   26.6990   13.6670   23.6290 F   0  0  0  0  0  0  0  0  0  0  0  0
   25.3710    8.9510   21.5690 C   0  0  0  0  0  0  0  0  0  0  0  0
   25.1390   10.4060   21.4680 N   0  0  0  0  0  0  0  0  0  0  0  0
   26.1860   11.3450   21.3330 C   0  0  0  0  0  0  0  0  0  0  0  0
   27.4200   10.7790   21.1500 N   0  0  0  0  0  0  0  0  0  0  0  0
   26.0090   12.6300   21.3520 N   0  0  0  0  0  0  0  0  0  0  0  0
   24.7040   13.2220   21.6410 C   0  0  0  0  0  0  0  0  0  0  0  0
   24.8470   14.6470   21.1010 C   0  0  0  0  0  0  0  0  0  0  0  0
   23.6320   12.5420   20.8190 C   0  0  0  0  0  0  0  0  0  0  0  0
   23.4830   10.8320   21.2740 S   0  0  0  0  0  0  0  0  0  0  0  0
   22.9930   10.1330   20.0990 O   0  0  0  0  0  0  0  0  0  0  0  0
   22.9350   10.6810   22.5860 O   0  0  0  0  0  0  0  0  0  0  0  0
   28.2130   11.3520   21.0460 H   0  0  0  0  0  0  0  0  0  0  0  0
   27.5130    9.7990   21.1230 H   0  0  0  0  0  0  0  0  0  0  0  0
   21.5070   13.0570   25.3470 N   0  0  0  0  0  0  0  0  0  0  0  0
   20.8080   11.8840   25.5680 C   0  0  0  0  0  0  0  0  0  0  0  0
   21.2330   10.7580   25.3460 O   0  0  0  0  0  0  0  0  0  0  0  0
   20.9960   13.8910   25.4630 H   0  0  0  0  0  0  0  0  0  0  0  0
   19.4550   12.0540   26.1530 C   0  0  0  0  0  0  0  0  0  0  0  0
   18.4530   12.6580   25.4120 C   0  0  0  0  0  0  0  0  0  0  0  0
   17.2110   12.7920   26.0070 C   0  0  0  0  0  0  0  0  0  0  0  0
   17.0100   12.3280   27.2930 C   0  0  0  0  0  0  0  0  0  0  0  0
   15.8250   12.4450   27.9150 F   0  0  0  0  0  0  0  0  0  0  0  0
   18.0710   11.7470   27.9510 C   0  0  0  0  0  0  0  0  0  0  0  0
   19.2890   11.6080   27.4020 N   0  0  0  0  0  0  0  0  0  0  0  0
  8  9  1  0
  9 10  1  0
 10 11  1  0
 10 12  2  0
 12 13  1  0
 13 14  1  0
 13  1  1  0
  1  2  2  0
  2  3  1  0
  3 21  1  0
 21 22  1  0
 22 23  2  0
 22 25  1  0
 25 26  2  0
 26 27  1  0
 27 28  2  0
 28 29  1  0
 28 30  1  0
 30 31  2  0
  3  4  2  0
  4  5  1  0
  5  6  2  0
  6  7  1  0
 13 15  1  0
 15 16  1  0
 16 17  2  0
 16 18  2  0
 16  9  1  0
  6  1  1  0
 31 25  1  0
 11 19  1  0
 11 20  1  0
 21 24  1  0
M  END
> <meeko>
{"is_sidechain": false}

> <source_group>
BACE1-476

> <source_system>
BACE1_verubecestat

> <source_run>
alternate_476_seed1103_ex32

> <source_seed>
1103

> <vina_pose_rank>
19

> <vina_affinity_kcal_mol>
-6.5519999999999996

> <vina_rmsd_to_crystal_angstrom>
8.4198000000000004

> <minimizedAffinity>
-7.13870

> <CNNscore>
0.0177893750

> <CNNaffinity>
4.1682133675

> <CNN_VS>
0.0741499141

> <CNNaffinity_variance>
1.2103928328

$$$$
