BACE1_verubecestat_401__alternate_401_seed3301_ex32__pose01
     RDKit          3D

 45 47  0  0  0  0  0  0  0  0999 V2000
   16.9470    4.7860   16.1170 C   0  0  0  0  0  0  0  0  0  0  0  0
   16.1910    4.2480   17.2650 N   0  0  0  0  0  0  0  0  0  0  0  0
   14.7900    4.3780   17.3930 C   0  0  0  0  0  0  0  0  0  0  0  0
   14.1780    4.9090   16.2900 N   0  0  0  0  0  0  0  0  0  0  0  0
   14.1240    4.0080   18.4430 N   0  0  0  0  0  0  0  0  0  0  0  0
   14.7970    3.5310   19.6510 C   0  0  2  0  0  0  0  0  0  0  0  0
   13.6820    2.7900   20.3940 C   0  0  0  0  0  0  0  0  0  0  0  0
   15.2890    4.6770   20.5210 C   0  0  0  0  0  0  0  0  0  0  0  0
   16.1770    4.4520   21.5720 C   0  0  0  0  0  0  0  0  0  0  0  0
   16.6370    5.4700   22.3770 C   0  0  0  0  0  0  0  0  0  0  0  0
   17.5270    5.1090   23.3970 N   0  0  0  0  0  0  0  0  0  0  0  0
   18.9070    5.2050   23.4040 C   0  0  0  0  0  0  0  0  0  0  0  0
   19.5960    5.5120   22.4400 O   0  0  0  0  0  0  0  0  0  0  0  0
   19.5540    4.9410   24.7120 C   0  0  0  0  0  0  0  0  0  0  0  0
   19.3450    5.8040   25.7730 C   0  0  0  0  0  0  0  0  0  0  0  0
   19.9750    5.5100   26.9700 C   0  0  0  0  0  0  0  0  0  0  0  0
   20.7730    4.3870   27.0700 C   0  0  0  0  0  0  0  0  0  0  0  0
   21.4110    4.0660   28.2080 F   0  0  0  0  0  0  0  0  0  0  0  0
   20.9240    3.5920   25.9560 C   0  0  0  0  0  0  0  0  0  0  0  0
   20.3300    3.8540   24.7800 N   0  0  0  0  0  0  0  0  0  0  0  0
   16.2410    6.7810   22.1480 C   0  0  0  0  0  0  0  0  0  0  0  0
   15.3570    7.0220   21.1110 C   0  0  0  0  0  0  0  0  0  0  0  0
   14.8790    5.9870   20.3320 C   0  0  0  0  0  0  0  0  0  0  0  0
   13.9900    6.2470   19.3380 F   0  0  0  0  0  0  0  0  0  0  0  0
   15.8470    2.5040   19.2880 C   0  0  0  0  0  0  0  0  0  0  0  0
   17.1250    3.2360   18.2980 S   0  0  0  0  0  0  0  0  0  0  0  0
   17.6730    2.1720   17.4760 O   0  0  0  0  0  0  0  0  0  0  0  0
   17.9160    4.1560   19.0540 O   0  0  0  0  0  0  0  0  0  0  0  0
   17.7919    5.3873   16.4838 H   0  0  0  0  0  0  0  0  0  0  0  0
   17.3270    3.9540   15.5059 H   0  0  0  0  0  0  0  0  0  0  0  0
   16.2855    5.4176   15.5059 H   0  0  0  0  0  0  0  0  0  0  0  0
   13.2020    5.0390   16.2830 H   0  0  0  0  0  0  0  0  0  0  0  0
   14.7140    5.1620   15.5030 H   0  0  0  0  0  0  0  0  0  0  0  0
   13.8341    2.8911   21.4787 H   0  0  0  0  0  0  0  0  0  0  0  0
   12.7083    3.2213   20.1185 H   0  0  0  0  0  0  0  0  0  0  0  0
   13.7025    1.7252   20.1185 H   0  0  0  0  0  0  0  0  0  0  0  0
   16.5221    3.4255   21.7648 H   0  0  0  0  0  0  0  0  0  0  0  0
   17.1180    4.7410   24.2140 H   0  0  0  0  0  0  0  0  0  0  0  0
   18.7022    6.6906   25.6692 H   0  0  0  0  0  0  0  0  0  0  0  0
   19.8404    6.1695   27.8400 H   0  0  0  0  0  0  0  0  0  0  0  0
   21.5619    2.6991   26.0327 H   0  0  0  0  0  0  0  0  0  0  0  0
   16.6189    7.6039   22.7726 H   0  0  0  0  0  0  0  0  0  0  0  0
   15.0307    8.0520   20.9045 H   0  0  0  0  0  0  0  0  0  0  0  0
   16.2910    2.1003   20.2099 H   0  0  0  0  0  0  0  0  0  0  0  0
   15.3694    1.6991   18.7100 H   0  0  0  0  0  0  0  0  0  0  0  0
  1  2  1  0
  2  3  1  0
  3  4  1  0
  3  5  2  0
  5  6  1  0
  6  7  1  1
  6  8  1  0
  8  9  2  0
  9 10  1  0
 10 11  1  0
 11 12  1  0
 12 13  2  0
 12 14  1  0
 14 15  2  0
 15 16  1  0
 16 17  2  0
 17 18  1  0
 17 19  1  0
 19 20  2  0
 10 21  2  0
 21 22  1  0
 22 23  2  0
 23 24  1  0
  6 25  1  0
 25 26  1  0
 26 27  2  0
 26 28  2  0
 26  2  1  0
 23  8  1  0
 20 14  1  0
  1 29  1  0
  1 30  1  0
  1 31  1  0
  4 32  1  0
  4 33  1  0
  7 34  1  0
  7 35  1  0
  7 36  1  0
  9 37  1  0
 11 38  1  0
 15 39  1  0
 16 40  1  0
 19 41  1  0
 21 42  1  0
 22 43  1  0
 25 44  1  0
 25 45  1  0
M  END
>  <meeko>  (1) 
{"is_sidechain": false}

>  <source_group>  (1) 
BACE1-401 observed AD isoform

>  <source_system>  (1) 
BACE1_verubecestat_401

>  <source_run>  (1) 
alternate_401_seed3301_ex32

>  <source_seed>  (1) 
3301

>  <vina_pose_rank>  (1) 
1

>  <vina_affinity_kcal_mol>  (1) 
-9.5419999999999998

>  <vina_rmsd_to_crystal_angstrom>  (1) 
10.841100000000001

$$$$
BACE1_verubecestat_401__alternate_401_seed3301_ex32__pose02
     RDKit          3D

 45 47  0  0  0  0  0  0  0  0999 V2000
   22.7290   11.3230   23.1570 C   0  0  0  0  0  0  0  0  0  0  0  0
   21.9080   11.2770   24.3840 N   0  0  0  0  0  0  0  0  0  0  0  0
   21.6380   10.0800   25.0840 C   0  0  0  0  0  0  0  0  0  0  0  0
   22.3270    8.9940   24.6150 N   0  0  0  0  0  0  0  0  0  0  0  0
   20.8320   10.0040   26.0980 N   0  0  0  0  0  0  0  0  0  0  0  0
   20.0310   11.1480   26.5300 C   0  0  2  0  0  0  0  0  0  0  0  0
   19.6370   10.7700   27.9610 C   0  0  0  0  0  0  0  0  0  0  0  0
   18.7680   11.3070   25.6980 C   0  0  0  0  0  0  0  0  0  0  0  0
   18.4760   10.4270   24.6580 C   0  0  0  0  0  0  0  0  0  0  0  0
   17.3420   10.5480   23.8870 C   0  0  0  0  0  0  0  0  0  0  0  0
   17.1660    9.5960   22.8740 N   0  0  0  0  0  0  0  0  0  0  0  0
   16.4530    8.4110   22.9260 C   0  0  0  0  0  0  0  0  0  0  0  0
   15.9530    7.9340   23.9360 O   0  0  0  0  0  0  0  0  0  0  0  0
   16.2770    7.7210   21.6260 C   0  0  0  0  0  0  0  0  0  0  0  0
   15.0110    7.3520   21.2040 C   0  0  0  0  0  0  0  0  0  0  0  0
   14.9060    6.7080   19.9840 C   0  0  0  0  0  0  0  0  0  0  0  0
   16.0410    6.4610   19.2360 C   0  0  0  0  0  0  0  0  0  0  0  0
   15.9890    5.8320   18.0500 F   0  0  0  0  0  0  0  0  0  0  0  0
   17.2570    6.8610   19.7420 C   0  0  0  0  0  0  0  0  0  0  0  0
   17.3910    7.4820   20.9260 N   0  0  0  0  0  0  0  0  0  0  0  0
   16.4230   11.5590   24.1410 C   0  0  0  0  0  0  0  0  0  0  0  0
   16.6980   12.4440   25.1690 C   0  0  0  0  0  0  0  0  0  0  0  0
   17.8560   12.3290   25.9130 C   0  0  0  0  0  0  0  0  0  0  0  0
   18.1170   13.2290   26.8960 F   0  0  0  0  0  0  0  0  0  0  0  0
   20.8980   12.3850   26.6210 C   0  0  0  0  0  0  0  0  0  0  0  0
   21.5260   12.8290   25.0220 S   0  0  0  0  0  0  0  0  0  0  0  0
   22.7810   13.5230   25.2480 O   0  0  0  0  0  0  0  0  0  0  0  0
   20.4880   13.3060   24.1620 O   0  0  0  0  0  0  0  0  0  0  0  0
   23.7930   11.3826   23.4298 H   0  0  0  0  0  0  0  0  0  0  0  0
   22.5530   10.4136   22.5637 H   0  0  0  0  0  0  0  0  0  0  0  0
   22.4525   12.2071   22.5637 H   0  0  0  0  0  0  0  0  0  0  0  0
   22.2050    8.1140   25.0390 H   0  0  0  0  0  0  0  0  0  0  0  0
   22.9440    9.0930   23.8540 H   0  0  0  0  0  0  0  0  0  0  0  0
   20.2419   11.3503   28.6733 H   0  0  0  0  0  0  0  0  0  0  0  0
   18.5713   10.9922   28.1187 H   0  0  0  0  0  0  0  0  0  0  0  0
   19.8149    9.6960   28.1187 H   0  0  0  0  0  0  0  0  0  0  0  0
   19.1767    9.6061   24.4454 H   0  0  0  0  0  0  0  0  0  0  0  0
   17.6060    9.7960   22.0160 H   0  0  0  0  0  0  0  0  0  0  0  0
   14.1217    7.5630   21.8160 H   0  0  0  0  0  0  0  0  0  0  0  0
   13.9205    6.3932   19.6102 H   0  0  0  0  0  0  0  0  0  0  0  0
   18.1620    6.6629   19.1489 H   0  0  0  0  0  0  0  0  0  0  0  0
   15.5046   11.6531   23.5430 H   0  0  0  0  0  0  0  0  0  0  0  0
   15.9847   13.2498   25.3966 H   0  0  0  0  0  0  0  0  0  0  0  0
   20.2987   13.2178   27.0176 H   0  0  0  0  0  0  0  0  0  0  0  0
   21.7466   12.1741   27.2884 H   0  0  0  0  0  0  0  0  0  0  0  0
  1  2  1  0
  2  3  1  0
  3  4  1  0
  3  5  2  0
  5  6  1  0
  6  7  1  1
  6  8  1  0
  8  9  2  0
  9 10  1  0
 10 11  1  0
 11 12  1  0
 12 13  2  0
 12 14  1  0
 14 15  2  0
 15 16  1  0
 16 17  2  0
 17 18  1  0
 17 19  1  0
 19 20  2  0
 10 21  2  0
 21 22  1  0
 22 23  2  0
 23 24  1  0
  6 25  1  0
 25 26  1  0
 26 27  2  0
 26 28  2  0
 26  2  1  0
 23  8  1  0
 20 14  1  0
  1 29  1  0
  1 30  1  0
  1 31  1  0
  4 32  1  0
  4 33  1  0
  7 34  1  0
  7 35  1  0
  7 36  1  0
  9 37  1  0
 11 38  1  0
 15 39  1  0
 16 40  1  0
 19 41  1  0
 21 42  1  0
 22 43  1  0
 25 44  1  0
 25 45  1  0
M  END
>  <meeko>  (2) 
{"is_sidechain": false}

>  <source_group>  (2) 
BACE1-401 observed AD isoform

>  <source_system>  (2) 
BACE1_verubecestat_401

>  <source_run>  (2) 
alternate_401_seed3301_ex32

>  <source_seed>  (2) 
3301

>  <vina_pose_rank>  (2) 
2

>  <vina_affinity_kcal_mol>  (2) 
-9.3290000000000006

>  <vina_rmsd_to_crystal_angstrom>  (2) 
9.4657999999999998

$$$$
BACE1_verubecestat_401__alternate_401_seed3301_ex32__pose03
     RDKit          3D

 45 47  0  0  0  0  0  0  0  0999 V2000
   14.4980    2.3040   18.8260 C   0  0  0  0  0  0  0  0  0  0  0  0
   14.5700    3.4940   19.6970 N   0  0  0  0  0  0  0  0  0  0  0  0
   14.2190    4.7900   19.2600 C   0  0  0  0  0  0  0  0  0  0  0  0
   13.6640    4.8230   18.0090 N   0  0  0  0  0  0  0  0  0  0  0  0
   14.3780    5.8610   19.9750 N   0  0  0  0  0  0  0  0  0  0  0  0
   15.0580    5.8260   21.2690 C   0  0  2  0  0  0  0  0  0  0  0  0
   14.6040    7.1300   21.9310 C   0  0  0  0  0  0  0  0  0  0  0  0
   16.5710    5.8520   21.1190 C   0  0  0  0  0  0  0  0  0  0  0  0
   17.4060    5.4820   22.1730 C   0  0  0  0  0  0  0  0  0  0  0  0
   18.7780    5.4990   22.0670 C   0  0  0  0  0  0  0  0  0  0  0  0
   19.5000    5.1010   23.1990 N   0  0  0  0  0  0  0  0  0  0  0  0
   19.3570    5.5380   24.5040 C   0  0  0  0  0  0  0  0  0  0  0  0
   18.6400    6.4620   24.8630 O   0  0  0  0  0  0  0  0  0  0  0  0
   20.1270    4.7730   25.5150 C   0  0  0  0  0  0  0  0  0  0  0  0
   20.1190    5.1760   26.8400 C   0  0  0  0  0  0  0  0  0  0  0  0
   20.8550    4.4260   27.7400 C   0  0  0  0  0  0  0  0  0  0  0  0
   21.5580    3.3210   27.3020 C   0  0  0  0  0  0  0  0  0  0  0  0
   22.2950    2.5690   28.1380 F   0  0  0  0  0  0  0  0  0  0  0  0
   21.5090    3.0030   25.9640 C   0  0  0  0  0  0  0  0  0  0  0  0
   20.8080    3.7140   25.0660 N   0  0  0  0  0  0  0  0  0  0  0  0
   19.3860    5.8730   20.8750 C   0  0  0  0  0  0  0  0  0  0  0  0
   18.5740    6.2470   19.8190 C   0  0  0  0  0  0  0  0  0  0  0  0
   17.1990    6.2550   19.9510 C   0  0  0  0  0  0  0  0  0  0  0  0
   16.4250    6.6550   18.9090 F   0  0  0  0  0  0  0  0  0  0  0  0
   14.5180    4.6900   22.1090 C   0  0  0  0  0  0  0  0  0  0  0  0
   14.8720    3.1250   21.3510 S   0  0  0  0  0  0  0  0  0  0  0  0
   13.8310    2.2100   21.7850 O   0  0  0  0  0  0  0  0  0  0  0  0
   16.2690    2.8260   21.3860 O   0  0  0  0  0  0  0  0  0  0  0  0
   14.4432    1.3978   19.4471 H   0  0  0  0  0  0  0  0  0  0  0  0
   13.6021    2.3681   18.1910 H   0  0  0  0  0  0  0  0  0  0  0  0
   15.3951    2.2596   18.1910 H   0  0  0  0  0  0  0  0  0  0  0  0
   13.3860    5.6830   17.6170 H   0  0  0  0  0  0  0  0  0  0  0  0
   13.5420    3.9880   17.5020 H   0  0  0  0  0  0  0  0  0  0  0  0
   14.6427    7.0188   23.0247 H   0  0  0  0  0  0  0  0  0  0  0  0
   15.2698    7.9493   21.6219 H   0  0  0  0  0  0  0  0  0  0  0  0
   13.5734    7.3587   21.6219 H   0  0  0  0  0  0  0  0  0  0  0  0
   16.9516    5.1652   23.1233 H   0  0  0  0  0  0  0  0  0  0  0  0
   20.1990    4.4240   23.0460 H   0  0  0  0  0  0  0  0  0  0  0  0
   19.5490    6.0590   27.1646 H   0  0  0  0  0  0  0  0  0  0  0  0
   20.8801    4.7094   28.8026 H   0  0  0  0  0  0  0  0  0  0  0  0
   22.0708    2.1246   25.6134 H   0  0  0  0  0  0  0  0  0  0  0  0
   20.4813    5.8718   20.7737 H   0  0  0  0  0  0  0  0  0  0  0  0
   19.0293    6.5418   18.8620 H   0  0  0  0  0  0  0  0  0  0  0  0
   14.9855    4.7230   23.1042 H   0  0  0  0  0  0  0  0  0  0  0  0
   13.4271    4.8020   22.1955 H   0  0  0  0  0  0  0  0  0  0  0  0
  1  2  1  0
  2  3  1  0
  3  4  1  0
  3  5  2  0
  5  6  1  0
  6  7  1  1
  6  8  1  0
  8  9  2  0
  9 10  1  0
 10 11  1  0
 11 12  1  0
 12 13  2  0
 12 14  1  0
 14 15  2  0
 15 16  1  0
 16 17  2  0
 17 18  1  0
 17 19  1  0
 19 20  2  0
 10 21  2  0
 21 22  1  0
 22 23  2  0
 23 24  1  0
  6 25  1  0
 25 26  1  0
 26 27  2  0
 26 28  2  0
 26  2  1  0
 23  8  1  0
 20 14  1  0
  1 29  1  0
  1 30  1  0
  1 31  1  0
  4 32  1  0
  4 33  1  0
  7 34  1  0
  7 35  1  0
  7 36  1  0
  9 37  1  0
 11 38  1  0
 15 39  1  0
 16 40  1  0
 19 41  1  0
 21 42  1  0
 22 43  1  0
 25 44  1  0
 25 45  1  0
M  END
>  <meeko>  (3) 
{"is_sidechain": false}

>  <source_group>  (3) 
BACE1-401 observed AD isoform

>  <source_system>  (3) 
BACE1_verubecestat_401

>  <source_run>  (3) 
alternate_401_seed3301_ex32

>  <source_seed>  (3) 
3301

>  <vina_pose_rank>  (3) 
3

>  <vina_affinity_kcal_mol>  (3) 
-9.1050000000000004

>  <vina_rmsd_to_crystal_angstrom>  (3) 
10.247999999999999

$$$$
BACE1_verubecestat_401__alternate_401_seed3301_ex32__pose04
     RDKit          3D

 45 47  0  0  0  0  0  0  0  0999 V2000
   28.3990   13.5390   21.8590 C   0  0  0  0  0  0  0  0  0  0  0  0
   27.2830   13.3040   20.9230 N   0  0  0  0  0  0  0  0  0  0  0  0
   26.2770   14.2620   20.6670 C   0  0  0  0  0  0  0  0  0  0  0  0
   26.5110   15.4810   21.2460 N   0  0  0  0  0  0  0  0  0  0  0  0
   25.2320   14.0340   19.9330 N   0  0  0  0  0  0  0  0  0  0  0  0
   24.9450   12.7030   19.3990 C   0  0  2  0  0  0  0  0  0  0  0  0
   23.9590   12.9950   18.2640 C   0  0  0  0  0  0  0  0  0  0  0  0
   24.2630   11.8120   20.4250 C   0  0  0  0  0  0  0  0  0  0  0  0
   24.0650   12.2430   21.7350 C   0  0  0  0  0  0  0  0  0  0  0  0
   23.4530   11.4570   22.6850 C   0  0  0  0  0  0  0  0  0  0  0  0
   23.3140   12.0110   23.9640 N   0  0  0  0  0  0  0  0  0  0  0  0
   22.3600   12.9090   24.4090 C   0  0  0  0  0  0  0  0  0  0  0  0
   21.5390   13.4750   23.6990 O   0  0  0  0  0  0  0  0  0  0  0  0
   22.3480   13.1460   25.8730 C   0  0  0  0  0  0  0  0  0  0  0  0
   21.3150   12.6440   26.6460 C   0  0  0  0  0  0  0  0  0  0  0  0
   21.3540   12.8970   28.0060 C   0  0  0  0  0  0  0  0  0  0  0  0
   22.3990   13.6240   28.5420 C   0  0  0  0  0  0  0  0  0  0  0  0
   22.4740   13.9020   29.8540 F   0  0  0  0  0  0  0  0  0  0  0  0
   23.3770   14.0860   27.6900 C   0  0  0  0  0  0  0  0  0  0  0  0
   23.3640   13.8620   26.3660 N   0  0  0  0  0  0  0  0  0  0  0  0
   22.9860   10.1910   22.3550 C   0  0  0  0  0  0  0  0  0  0  0  0
   23.1770    9.7440   21.0590 C   0  0  0  0  0  0  0  0  0  0  0  0
   23.8210   10.5320   20.1250 C   0  0  0  0  0  0  0  0  0  0  0  0
   24.0220   10.0590   18.8690 F   0  0  0  0  0  0  0  0  0  0  0  0
   26.1880   12.1180   18.7660 C   0  0  0  0  0  0  0  0  0  0  0  0
   27.4540   11.8700   19.9850 S   0  0  0  0  0  0  0  0  0  0  0  0
   28.7240   11.9630   19.2870 O   0  0  0  0  0  0  0  0  0  0  0  0
   27.1120   10.8230   20.8950 O   0  0  0  0  0  0  0  0  0  0  0  0
   28.0325   13.4618   22.8933 H   0  0  0  0  0  0  0  0  0  0  0  0
   29.1833   12.7863   21.6908 H   0  0  0  0  0  0  0  0  0  0  0  0
   28.8132   14.5441   21.6908 H   0  0  0  0  0  0  0  0  0  0  0  0
   25.8660   16.2150   21.1250 H   0  0  0  0  0  0  0  0  0  0  0  0
   27.3240   15.6230   21.7830 H   0  0  0  0  0  0  0  0  0  0  0  0
   22.9860   13.2831   18.6886 H   0  0  0  0  0  0  0  0  0  0  0  0
   24.3464   13.8170   17.6441 H   0  0  0  0  0  0  0  0  0  0  0  0
   23.8364   12.0946   17.6441 H   0  0  0  0  0  0  0  0  0  0  0  0
   24.4102   13.2477   22.0204 H   0  0  0  0  0  0  0  0  0  0  0  0
   23.9790   11.7250   24.6310 H   0  0  0  0  0  0  0  0  0  0  0  0
   20.4943   12.0659   26.1962 H   0  0  0  0  0  0  0  0  0  0  0  0
   20.5537   12.5195   28.6594 H   0  0  0  0  0  0  0  0  0  0  0  0
   24.2093   14.6667   28.1144 H   0  0  0  0  0  0  0  0  0  0  0  0
   22.4792    9.5621   23.1018 H   0  0  0  0  0  0  0  0  0  0  0  0
   22.8111    8.7480   20.7690 H   0  0  0  0  0  0  0  0  0  0  0  0
   25.9375   11.1519   18.3036 H   0  0  0  0  0  0  0  0  0  0  0  0
   26.5615   12.8192   18.0052 H   0  0  0  0  0  0  0  0  0  0  0  0
  1  2  1  0
  2  3  1  0
  3  4  1  0
  3  5  2  0
  5  6  1  0
  6  7  1  6
  6  8  1  0
  8  9  2  0
  9 10  1  0
 10 11  1  0
 11 12  1  0
 12 13  2  0
 12 14  1  0
 14 15  2  0
 15 16  1  0
 16 17  2  0
 17 18  1  0
 17 19  1  0
 19 20  2  0
 10 21  2  0
 21 22  1  0
 22 23  2  0
 23 24  1  0
  6 25  1  0
 25 26  1  0
 26 27  2  0
 26 28  2  0
 26  2  1  0
 23  8  1  0
 20 14  1  0
  1 29  1  0
  1 30  1  0
  1 31  1  0
  4 32  1  0
  4 33  1  0
  7 34  1  0
  7 35  1  0
  7 36  1  0
  9 37  1  0
 11 38  1  0
 15 39  1  0
 16 40  1  0
 19 41  1  0
 21 42  1  0
 22 43  1  0
 25 44  1  0
 25 45  1  0
M  END
>  <meeko>  (4) 
{"is_sidechain": false}

>  <source_group>  (4) 
BACE1-401 observed AD isoform

>  <source_system>  (4) 
BACE1_verubecestat_401

>  <source_run>  (4) 
alternate_401_seed3301_ex32

>  <source_seed>  (4) 
3301

>  <vina_pose_rank>  (4) 
4

>  <vina_affinity_kcal_mol>  (4) 
-9.0210000000000008

>  <vina_rmsd_to_crystal_angstrom>  (4) 
7.1582999999999997

$$$$
BACE1_verubecestat_401__alternate_401_seed3301_ex32__pose05
     RDKit          3D

 45 47  0  0  0  0  0  0  0  0999 V2000
   19.3150    4.8350   24.1070 C   0  0  0  0  0  0  0  0  0  0  0  0
   18.5860    5.2730   22.9000 N   0  0  0  0  0  0  0  0  0  0  0  0
   19.2190    5.8990   21.8030 C   0  0  0  0  0  0  0  0  0  0  0  0
   20.5850    5.9250   21.8910 N   0  0  0  0  0  0  0  0  0  0  0  0
   18.5820    6.3870   20.7840 N   0  0  0  0  0  0  0  0  0  0  0  0
   17.1210    6.4390   20.7450 C   0  0  2  0  0  0  0  0  0  0  0  0
   16.8240    6.6200   19.2540 C   0  0  0  0  0  0  0  0  0  0  0  0
   16.5720    7.6370   21.5040 C   0  0  0  0  0  0  0  0  0  0  0  0
   17.4200    8.5110   22.1810 C   0  0  0  0  0  0  0  0  0  0  0  0
   16.9510    9.6010   22.8780 C   0  0  0  0  0  0  0  0  0  0  0  0
   17.9100   10.4010   23.5130 N   0  0  0  0  0  0  0  0  0  0  0  0
   17.8320   11.0140   24.7500 C   0  0  0  0  0  0  0  0  0  0  0  0
   16.8300   11.0590   25.4520 O   0  0  0  0  0  0  0  0  0  0  0  0
   19.0940   11.6210   25.2380 C   0  0  0  0  0  0  0  0  0  0  0  0
   19.7580   12.5530   24.4600 C   0  0  0  0  0  0  0  0  0  0  0  0
   20.9330   13.0850   24.9630 C   0  0  0  0  0  0  0  0  0  0  0  0
   21.3970   12.6820   26.2000 C   0  0  0  0  0  0  0  0  0  0  0  0
   22.5360   13.1630   26.7240 F   0  0  0  0  0  0  0  0  0  0  0  0
   20.6690   11.7430   26.8960 C   0  0  0  0  0  0  0  0  0  0  0  0
   19.5290   11.2050   26.4320 N   0  0  0  0  0  0  0  0  0  0  0  0
   15.5910    9.8820   22.9110 C   0  0  0  0  0  0  0  0  0  0  0  0
   14.7330    9.0230   22.2470 C   0  0  0  0  0  0  0  0  0  0  0  0
   15.2150    7.9160   21.5780 C   0  0  0  0  0  0  0  0  0  0  0  0
   14.3500    7.0720   20.9600 F   0  0  0  0  0  0  0  0  0  0  0  0
   16.5430    5.1020   21.1530 C   0  0  0  0  0  0  0  0  0  0  0  0
   16.9540    4.7290   22.8390 S   0  0  0  0  0  0  0  0  0  0  0  0
   16.9790    3.2820   22.9490 O   0  0  0  0  0  0  0  0  0  0  0  0
   16.2720    5.5930   23.7510 O   0  0  0  0  0  0  0  0  0  0  0  0
   18.7693    5.1629   25.0041 H   0  0  0  0  0  0  0  0  0  0  0  0
   19.3968    3.7380   24.1081 H   0  0  0  0  0  0  0  0  0  0  0  0
   20.3219    5.2778   24.1081 H   0  0  0  0  0  0  0  0  0  0  0  0
   21.1170    6.3400   21.1730 H   0  0  0  0  0  0  0  0  0  0  0  0
   21.0360    5.5280   22.6710 H   0  0  0  0  0  0  0  0  0  0  0  0
   15.8904    7.1889   19.1325 H   0  0  0  0  0  0  0  0  0  0  0  0
   17.6515    7.1675   18.7791 H   0  0  0  0  0  0  0  0  0  0  0  0
   16.7167    5.6336   18.7791 H   0  0  0  0  0  0  0  0  0  0  0  0
   18.5036    8.3230   22.1575 H   0  0  0  0  0  0  0  0  0  0  0  0
   18.7470   10.5450   23.0140 H   0  0  0  0  0  0  0  0  0  0  0  0
   19.3669   12.8597   23.4787 H   0  0  0  0  0  0  0  0  0  0  0  0
   21.4962   13.8274   24.3785 H   0  0  0  0  0  0  0  0  0  0  0  0
   21.0389   11.4177   27.8796 H   0  0  0  0  0  0  0  0  0  0  0  0
   15.2074   10.7614   23.4491 H   0  0  0  0  0  0  0  0  0  0  0  0
   13.6518    9.2252   22.2524 H   0  0  0  0  0  0  0  0  0  0  0  0
   15.4486    5.1342   21.0467 H   0  0  0  0  0  0  0  0  0  0  0  0
   16.9666    4.3209   20.5046 H   0  0  0  0  0  0  0  0  0  0  0  0
  1  2  1  0
  2  3  1  0
  3  4  1  0
  3  5  2  0
  5  6  1  0
  6  7  1  6
  6  8  1  0
  8  9  2  0
  9 10  1  0
 10 11  1  0
 11 12  1  0
 12 13  2  0
 12 14  1  0
 14 15  2  0
 15 16  1  0
 16 17  2  0
 17 18  1  0
 17 19  1  0
 19 20  2  0
 10 21  2  0
 21 22  1  0
 22 23  2  0
 23 24  1  0
  6 25  1  0
 25 26  1  0
 26 27  2  0
 26 28  2  0
 26  2  1  0
 23  8  1  0
 20 14  1  0
  1 29  1  0
  1 30  1  0
  1 31  1  0
  4 32  1  0
  4 33  1  0
  7 34  1  0
  7 35  1  0
  7 36  1  0
  9 37  1  0
 11 38  1  0
 15 39  1  0
 16 40  1  0
 19 41  1  0
 21 42  1  0
 22 43  1  0
 25 44  1  0
 25 45  1  0
M  END
>  <meeko>  (5) 
{"is_sidechain": false}

>  <source_group>  (5) 
BACE1-401 observed AD isoform

>  <source_system>  (5) 
BACE1_verubecestat_401

>  <source_run>  (5) 
alternate_401_seed3301_ex32

>  <source_seed>  (5) 
3301

>  <vina_pose_rank>  (5) 
5

>  <vina_affinity_kcal_mol>  (5) 
-8.6910000000000007

>  <vina_rmsd_to_crystal_angstrom>  (5) 
8.8867999999999991

$$$$
BACE1_verubecestat_401__alternate_401_seed3301_ex32__pose06
     RDKit          3D

 45 47  0  0  0  0  0  0  0  0999 V2000
   21.3830   11.5650   26.9060 C   0  0  0  0  0  0  0  0  0  0  0  0
   20.0670   11.6580   26.2430 N   0  0  0  0  0  0  0  0  0  0  0  0
   18.8450   11.4790   26.9280 C   0  0  0  0  0  0  0  0  0  0  0  0
   18.9810   11.3620   28.2850 N   0  0  0  0  0  0  0  0  0  0  0  0
   17.6870   11.4500   26.3430 N   0  0  0  0  0  0  0  0  0  0  0  0
   17.5610   11.4800   24.8870 C   0  0  2  0  0  0  0  0  0  0  0  0
   16.1040   11.9030   24.6780 C   0  0  0  0  0  0  0  0  0  0  0  0
   17.7680   10.1070   24.2670 C   0  0  0  0  0  0  0  0  0  0  0  0
   18.3590    9.0720   24.9910 C   0  0  0  0  0  0  0  0  0  0  0  0
   18.5620    7.8210   24.4550 C   0  0  0  0  0  0  0  0  0  0  0  0
   19.1640    6.8700   25.2890 N   0  0  0  0  0  0  0  0  0  0  0  0
   19.4100    5.5340   25.0280 C   0  0  0  0  0  0  0  0  0  0  0  0
   19.0140    4.9240   24.0440 O   0  0  0  0  0  0  0  0  0  0  0  0
   20.2540    4.8380   26.0300 C   0  0  0  0  0  0  0  0  0  0  0  0
   20.1280    5.1470   27.3730 C   0  0  0  0  0  0  0  0  0  0  0  0
   20.9410    4.4690   28.2640 C   0  0  0  0  0  0  0  0  0  0  0  0
   21.8330    3.5220   27.7980 C   0  0  0  0  0  0  0  0  0  0  0  0
   22.6490    2.8460   28.6240 F   0  0  0  0  0  0  0  0  0  0  0  0
   21.8900    3.2900   26.4430 C   0  0  0  0  0  0  0  0  0  0  0  0
   21.1180    3.9360   25.5530 N   0  0  0  0  0  0  0  0  0  0  0  0
   18.1550    7.5380   23.1570 C   0  0  0  0  0  0  0  0  0  0  0  0
   17.5690    8.5540   22.4230 C   0  0  0  0  0  0  0  0  0  0  0  0
   17.4020    9.8130   22.9630 C   0  0  0  0  0  0  0  0  0  0  0  0
   16.8510   10.8010   22.2110 F   0  0  0  0  0  0  0  0  0  0  0  0
   18.4280   12.5790   24.3140 C   0  0  0  0  0  0  0  0  0  0  0  0
   20.1440   12.2530   24.6290 S   0  0  0  0  0  0  0  0  0  0  0  0
   20.8090   13.5430   24.6780 O   0  0  0  0  0  0  0  0  0  0  0  0
   20.6160   11.1340   23.8740 O   0  0  0  0  0  0  0  0  0  0  0  0
   21.2453   11.5747   27.9973 H   0  0  0  0  0  0  0  0  0  0  0  0
   21.8788   10.6296   26.6073 H   0  0  0  0  0  0  0  0  0  0  0  0
   22.0054   12.4214   26.6073 H   0  0  0  0  0  0  0  0  0  0  0  0
   18.1850   11.2330   28.8500 H   0  0  0  0  0  0  0  0  0  0  0  0
   19.8750   11.4060   28.6960 H   0  0  0  0  0  0  0  0  0  0  0  0
   15.6193   12.0437   25.6554 H   0  0  0  0  0  0  0  0  0  0  0  0
   16.0735   12.8471   24.1143 H   0  0  0  0  0  0  0  0  0  0  0  0
   15.5727   11.1220   24.1143 H   0  0  0  0  0  0  0  0  0  0  0  0
   18.6741    9.2624   26.0275 H   0  0  0  0  0  0  0  0  0  0  0  0
   19.4480    7.1950   26.1740 H   0  0  0  0  0  0  0  0  0  0  0  0
   19.4083    5.9034   27.7193 H   0  0  0  0  0  0  0  0  0  0  0  0
   20.8774    4.6834   29.3410 H   0  0  0  0  0  0  0  0  0  0  0  0
   22.6022    2.5392   26.0702 H   0  0  0  0  0  0  0  0  0  0  0  0
   18.2945    6.5358   22.7257 H   0  0  0  0  0  0  0  0  0  0  0  0
   17.2316    8.3555   21.3950 H   0  0  0  0  0  0  0  0  0  0  0  0
   18.2652   12.6381   23.2277 H   0  0  0  0  0  0  0  0  0  0  0  0
   18.1551   13.5308   24.7932 H   0  0  0  0  0  0  0  0  0  0  0  0
  1  2  1  0
  2  3  1  0
  3  4  1  0
  3  5  2  0
  5  6  1  0
  6  7  1  1
  6  8  1  0
  8  9  2  0
  9 10  1  0
 10 11  1  0
 11 12  1  0
 12 13  2  0
 12 14  1  0
 14 15  2  0
 15 16  1  0
 16 17  2  0
 17 18  1  0
 17 19  1  0
 19 20  2  0
 10 21  2  0
 21 22  1  0
 22 23  2  0
 23 24  1  0
  6 25  1  0
 25 26  1  0
 26 27  2  0
 26 28  2  0
 26  2  1  0
 23  8  1  0
 20 14  1  0
  1 29  1  0
  1 30  1  0
  1 31  1  0
  4 32  1  0
  4 33  1  0
  7 34  1  0
  7 35  1  0
  7 36  1  0
  9 37  1  0
 11 38  1  0
 15 39  1  0
 16 40  1  0
 19 41  1  0
 21 42  1  0
 22 43  1  0
 25 44  1  0
 25 45  1  0
M  END
>  <meeko>  (6) 
{"is_sidechain": false}

>  <source_group>  (6) 
BACE1-401 observed AD isoform

>  <source_system>  (6) 
BACE1_verubecestat_401

>  <source_run>  (6) 
alternate_401_seed3301_ex32

>  <source_seed>  (6) 
3301

>  <vina_pose_rank>  (6) 
6

>  <vina_affinity_kcal_mol>  (6) 
-8.4130000000000003

>  <vina_rmsd_to_crystal_angstrom>  (6) 
8.0329999999999995

$$$$
BACE1_verubecestat_401__alternate_401_seed3301_ex32__pose07
     RDKit          3D

 45 47  0  0  0  0  0  0  0  0999 V2000
   27.3290   13.8720   23.1840 C   0  0  0  0  0  0  0  0  0  0  0  0
   26.4540   13.5810   22.0310 N   0  0  0  0  0  0  0  0  0  0  0  0
   25.2040   14.2090   21.8350 C   0  0  0  0  0  0  0  0  0  0  0  0
   24.9450   15.2190   22.7220 N   0  0  0  0  0  0  0  0  0  0  0  0
   24.3750   13.8880   20.8900 N   0  0  0  0  0  0  0  0  0  0  0  0
   24.6190   12.7470   20.0090 C   0  0  2  0  0  0  0  0  0  0  0  0
   23.6990   13.0300   18.8190 C   0  0  0  0  0  0  0  0  0  0  0  0
   24.2020   11.4320   20.6500 C   0  0  0  0  0  0  0  0  0  0  0  0
   23.4870   11.4090   21.8460 C   0  0  0  0  0  0  0  0  0  0  0  0
   23.1000   10.2340   22.4500 C   0  0  0  0  0  0  0  0  0  0  0  0
   22.3840   10.3510   23.6490 N   0  0  0  0  0  0  0  0  0  0  0  0
   22.6410   11.1830   24.7230 C   0  0  0  0  0  0  0  0  0  0  0  0
   23.6400   11.8790   24.8510 O   0  0  0  0  0  0  0  0  0  0  0  0
   21.5800   11.2280   25.7580 C   0  0  0  0  0  0  0  0  0  0  0  0
   20.2700   10.9400   25.4170 C   0  0  0  0  0  0  0  0  0  0  0  0
   19.3200   10.9990   26.4220 C   0  0  0  0  0  0  0  0  0  0  0  0
   19.6990   11.3320   27.7080 C   0  0  0  0  0  0  0  0  0  0  0  0
   18.8110   11.4110   28.7140 F   0  0  0  0  0  0  0  0  0  0  0  0
   21.0260   11.6070   27.9480 C   0  0  0  0  0  0  0  0  0  0  0  0
   21.9690   11.5640   26.9920 N   0  0  0  0  0  0  0  0  0  0  0  0
   23.3950    9.0110   21.8620 C   0  0  0  0  0  0  0  0  0  0  0  0
   24.1070    9.0140   20.6760 C   0  0  0  0  0  0  0  0  0  0  0  0
   24.5180   10.2000   20.0990 C   0  0  0  0  0  0  0  0  0  0  0  0
   25.2410   10.1750   18.9490 F   0  0  0  0  0  0  0  0  0  0  0  0
   26.0390   12.7860   19.4910 C   0  0  0  0  0  0  0  0  0  0  0  0
   27.1980   12.6050   20.8240 S   0  0  0  0  0  0  0  0  0  0  0  0
   28.4130   13.2850   20.4110 O   0  0  0  0  0  0  0  0  0  0  0  0
   27.1630   11.2880   21.3780 O   0  0  0  0  0  0  0  0  0  0  0  0
   26.7778   13.6887   24.1181 H   0  0  0  0  0  0  0  0  0  0  0  0
   28.2140   13.2198   23.1465 H   0  0  0  0  0  0  0  0  0  0  0  0
   27.6471   14.9243   23.1465 H   0  0  0  0  0  0  0  0  0  0  0  0
   24.0980   15.7180   22.6660 H   0  0  0  0  0  0  0  0  0  0  0  0
   25.6060   15.4470   23.4160 H   0  0  0  0  0  0  0  0  0  0  0  0
   22.7079   13.3349   19.1861 H   0  0  0  0  0  0  0  0  0  0  0  0
   24.1280   13.8377   18.2078 H   0  0  0  0  0  0  0  0  0  0  0  0
   23.5999   12.1208   18.2078 H   0  0  0  0  0  0  0  0  0  0  0  0
   23.2225   12.3636   22.3244 H   0  0  0  0  0  0  0  0  0  0  0  0
   21.5970    9.7660   23.7370 H   0  0  0  0  0  0  0  0  0  0  0  0
   19.9941   10.6742   24.3859 H   0  0  0  0  0  0  0  0  0  0  0  0
   18.2655   10.7812   26.1971 H   0  0  0  0  0  0  0  0  0  0  0  0
   21.3289   11.8747   28.9710 H   0  0  0  0  0  0  0  0  0  0  0  0
   23.0719    8.0674   22.3258 H   0  0  0  0  0  0  0  0  0  0  0  0
   24.3491    8.0594   20.1859 H   0  0  0  0  0  0  0  0  0  0  0  0
   26.1840   11.9658   18.7725 H   0  0  0  0  0  0  0  0  0  0  0  0
   26.2108   13.7563   19.0021 H   0  0  0  0  0  0  0  0  0  0  0  0
  1  2  1  0
  2  3  1  0
  3  4  1  0
  3  5  2  0
  5  6  1  0
  6  7  1  6
  6  8  1  0
  8  9  2  0
  9 10  1  0
 10 11  1  0
 11 12  1  0
 12 13  2  0
 12 14  1  0
 14 15  2  0
 15 16  1  0
 16 17  2  0
 17 18  1  0
 17 19  1  0
 19 20  2  0
 10 21  2  0
 21 22  1  0
 22 23  2  0
 23 24  1  0
  6 25  1  0
 25 26  1  0
 26 27  2  0
 26 28  2  0
 26  2  1  0
 23  8  1  0
 20 14  1  0
  1 29  1  0
  1 30  1  0
  1 31  1  0
  4 32  1  0
  4 33  1  0
  7 34  1  0
  7 35  1  0
  7 36  1  0
  9 37  1  0
 11 38  1  0
 15 39  1  0
 16 40  1  0
 19 41  1  0
 21 42  1  0
 22 43  1  0
 25 44  1  0
 25 45  1  0
M  END
>  <meeko>  (7) 
{"is_sidechain": false}

>  <source_group>  (7) 
BACE1-401 observed AD isoform

>  <source_system>  (7) 
BACE1_verubecestat_401

>  <source_run>  (7) 
alternate_401_seed3301_ex32

>  <source_seed>  (7) 
3301

>  <vina_pose_rank>  (7) 
7

>  <vina_affinity_kcal_mol>  (7) 
-8.3699999999999992

>  <vina_rmsd_to_crystal_angstrom>  (7) 
7.1443000000000003

$$$$
BACE1_verubecestat_401__alternate_401_seed3301_ex32__pose08
     RDKit          3D

 45 47  0  0  0  0  0  0  0  0999 V2000
   19.0770   12.2830   29.5600 C   0  0  0  0  0  0  0  0  0  0  0  0
   19.6280   12.3610   28.1930 N   0  0  0  0  0  0  0  0  0  0  0  0
   19.2580   13.3650   27.2700 C   0  0  0  0  0  0  0  0  0  0  0  0
   18.4620   14.3440   27.8020 N   0  0  0  0  0  0  0  0  0  0  0  0
   19.6470   13.3860   26.0320 N   0  0  0  0  0  0  0  0  0  0  0  0
   20.4170   12.2880   25.4500 C   0  0  2  0  0  0  0  0  0  0  0  0
   21.0380   12.9270   24.2050 C   0  0  0  0  0  0  0  0  0  0  0  0
   19.5270   11.1330   25.0180 C   0  0  0  0  0  0  0  0  0  0  0  0
   19.9760    9.8150   25.0820 C   0  0  0  0  0  0  0  0  0  0  0  0
   19.1930    8.7510   24.6950 C   0  0  0  0  0  0  0  0  0  0  0  0
   19.7640    7.4770   24.8110 N   0  0  0  0  0  0  0  0  0  0  0  0
   20.6400    6.8480   23.9440 C   0  0  0  0  0  0  0  0  0  0  0  0
   20.9650    7.2700   22.8420 O   0  0  0  0  0  0  0  0  0  0  0  0
   21.2330    5.5860   24.4490 C   0  0  0  0  0  0  0  0  0  0  0  0
   20.5470    4.8230   25.3780 C   0  0  0  0  0  0  0  0  0  0  0  0
   21.1480    3.6560   25.8160 C   0  0  0  0  0  0  0  0  0  0  0  0
   22.3850    3.2910   25.3210 C   0  0  0  0  0  0  0  0  0  0  0  0
   23.0100    2.1720   25.7230 F   0  0  0  0  0  0  0  0  0  0  0  0
   22.9910    4.1180   24.4030 C   0  0  0  0  0  0  0  0  0  0  0  0
   22.4360    5.2600   23.9640 N   0  0  0  0  0  0  0  0  0  0  0  0
   17.8970    8.9600   24.2410 C   0  0  0  0  0  0  0  0  0  0  0  0
   17.4350   10.2620   24.1680 C   0  0  0  0  0  0  0  0  0  0  0  0
   18.2430   11.3220   24.5290 C   0  0  0  0  0  0  0  0  0  0  0  0
   17.7760   12.5930   24.4210 F   0  0  0  0  0  0  0  0  0  0  0  0
   21.5580   11.9090   26.3690 C   0  0  0  0  0  0  0  0  0  0  0  0
   20.9400   11.2830   27.9100 S   0  0  0  0  0  0  0  0  0  0  0  0
   21.9530   11.5690   28.9100 O   0  0  0  0  0  0  0  0  0  0  0  0
   20.3080   10.0110   27.7480 O   0  0  0  0  0  0  0  0  0  0  0  0
   19.8912   12.3983   30.2906 H   0  0  0  0  0  0  0  0  0  0  0  0
   18.3387   13.0856   29.7041 H   0  0  0  0  0  0  0  0  0  0  0  0
   18.5905   11.3070   29.7041 H   0  0  0  0  0  0  0  0  0  0  0  0
   18.1520   15.0880   27.2370 H   0  0  0  0  0  0  0  0  0  0  0  0
   18.2010   14.3040   28.7510 H   0  0  0  0  0  0  0  0  0  0  0  0
   21.7745   13.6848   24.5104 H   0  0  0  0  0  0  0  0  0  0  0  0
   21.5369   12.1517   23.6050 H   0  0  0  0  0  0  0  0  0  0  0  0
   20.2488   13.4036   23.6050 H   0  0  0  0  0  0  0  0  0  0  0  0
   20.9919    9.6181   25.4549 H   0  0  0  0  0  0  0  0  0  0  0  0
   19.5090    6.9640   25.6120 H   0  0  0  0  0  0  0  0  0  0  0  0
   19.5608    5.1327   25.7541 H   0  0  0  0  0  0  0  0  0  0  0  0
   20.6416    3.0201   26.5571 H   0  0  0  0  0  0  0  0  0  0  0  0
   23.9772    3.8302   24.0098 H   0  0  0  0  0  0  0  0  0  0  0  0
   17.2567    8.1149   23.9480 H   0  0  0  0  0  0  0  0  0  0  0  0
   16.4104   10.4554   23.8177 H   0  0  0  0  0  0  0  0  0  0  0  0
   22.1703   11.1345   25.8841 H   0  0  0  0  0  0  0  0  0  0  0  0
   22.1641   12.8050   26.5686 H   0  0  0  0  0  0  0  0  0  0  0  0
  1  2  1  0
  2  3  1  0
  3  4  1  0
  3  5  2  0
  5  6  1  0
  6  7  1  6
  6  8  1  0
  8  9  2  0
  9 10  1  0
 10 11  1  0
 11 12  1  0
 12 13  2  0
 12 14  1  0
 14 15  2  0
 15 16  1  0
 16 17  2  0
 17 18  1  0
 17 19  1  0
 19 20  2  0
 10 21  2  0
 21 22  1  0
 22 23  2  0
 23 24  1  0
  6 25  1  0
 25 26  1  0
 26 27  2  0
 26 28  2  0
 26  2  1  0
 23  8  1  0
 20 14  1  0
  1 29  1  0
  1 30  1  0
  1 31  1  0
  4 32  1  0
  4 33  1  0
  7 34  1  0
  7 35  1  0
  7 36  1  0
  9 37  1  0
 11 38  1  0
 15 39  1  0
 16 40  1  0
 19 41  1  0
 21 42  1  0
 22 43  1  0
 25 44  1  0
 25 45  1  0
M  END
>  <meeko>  (8) 
{"is_sidechain": false}

>  <source_group>  (8) 
BACE1-401 observed AD isoform

>  <source_system>  (8) 
BACE1_verubecestat_401

>  <source_run>  (8) 
alternate_401_seed3301_ex32

>  <source_seed>  (8) 
3301

>  <vina_pose_rank>  (8) 
8

>  <vina_affinity_kcal_mol>  (8) 
-8.3520000000000003

>  <vina_rmsd_to_crystal_angstrom>  (8) 
7.6387

$$$$
BACE1_verubecestat_401__alternate_401_seed3301_ex32__pose09
     RDKit          3D

 45 47  0  0  0  0  0  0  0  0999 V2000
   16.5350    3.9920   19.6880 C   0  0  0  0  0  0  0  0  0  0  0  0
   16.6210    5.3130   20.3420 N   0  0  0  0  0  0  0  0  0  0  0  0
   17.3860    6.3810   19.8240 C   0  0  0  0  0  0  0  0  0  0  0  0
   17.9180    6.1340   18.5870 N   0  0  0  0  0  0  0  0  0  0  0  0
   17.5600    7.5100   20.4400 N   0  0  0  0  0  0  0  0  0  0  0  0
   17.0670    7.7270   21.7990 C   0  0  2  0  0  0  0  0  0  0  0  0
   17.0600    9.2530   21.9220 C   0  0  0  0  0  0  0  0  0  0  0  0
   18.0110    7.1550   22.8460 C   0  0  0  0  0  0  0  0  0  0  0  0
   19.1630    6.4630   22.4750 C   0  0  0  0  0  0  0  0  0  0  0  0
   20.0330    5.9320   23.4010 C   0  0  0  0  0  0  0  0  0  0  0  0
   21.1550    5.2620   22.8960 N   0  0  0  0  0  0  0  0  0  0  0  0
   22.3930    5.7880   22.5730 C   0  0  0  0  0  0  0  0  0  0  0  0
   22.6700    6.9800   22.5580 O   0  0  0  0  0  0  0  0  0  0  0  0
   23.4440    4.7880   22.2610 C   0  0  0  0  0  0  0  0  0  0  0  0
   23.5530    3.6390   23.0250 C   0  0  0  0  0  0  0  0  0  0  0  0
   24.5520    2.7420   22.6910 C   0  0  0  0  0  0  0  0  0  0  0  0
   25.3900    3.0100   21.6260 C   0  0  0  0  0  0  0  0  0  0  0  0
   26.3800    2.1730   21.2710 F   0  0  0  0  0  0  0  0  0  0  0  0
   25.2060    4.1830   20.9300 C   0  0  0  0  0  0  0  0  0  0  0  0
   24.2500    5.0760   21.2340 N   0  0  0  0  0  0  0  0  0  0  0  0
   19.7970    6.0920   24.7600 C   0  0  0  0  0  0  0  0  0  0  0  0
   18.6560    6.7730   25.1470 C   0  0  0  0  0  0  0  0  0  0  0  0
   17.7760    7.2720   24.2070 C   0  0  0  0  0  0  0  0  0  0  0  0
   16.6480    7.9110   24.6130 F   0  0  0  0  0  0  0  0  0  0  0  0
   15.6310    7.2660   21.9110 C   0  0  0  0  0  0  0  0  0  0  0  0
   15.5110    5.5160   21.6430 S   0  0  0  0  0  0  0  0  0  0  0  0
   14.1810    5.2680   21.1160 O   0  0  0  0  0  0  0  0  0  0  0  0
   16.1020    4.7760   22.7150 O   0  0  0  0  0  0  0  0  0  0  0  0
   16.4838    3.2056   20.4554 H   0  0  0  0  0  0  0  0  0  0  0  0
   15.6323    3.9515   19.0607 H   0  0  0  0  0  0  0  0  0  0  0  0
   17.4248    3.8348   19.0607 H   0  0  0  0  0  0  0  0  0  0  0  0
   18.4680    6.8190   18.1420 H   0  0  0  0  0  0  0  0  0  0  0  0
   17.7500    5.2720   18.1420 H   0  0  0  0  0  0  0  0  0  0  0  0
   17.0587    9.5352   22.9852 H   0  0  0  0  0  0  0  0  0  0  0  0
   17.9563    9.6643   21.4346 H   0  0  0  0  0  0  0  0  0  0  0  0
   16.1600    9.6560   21.4346 H   0  0  0  0  0  0  0  0  0  0  0  0
   19.3848    6.3367   21.4050 H   0  0  0  0  0  0  0  0  0  0  0  0
   21.0480    4.2940   22.7530 H   0  0  0  0  0  0  0  0  0  0  0  0
   22.8709    3.4463   23.8662 H   0  0  0  0  0  0  0  0  0  0  0  0
   24.6788    1.8169   23.2725 H   0  0  0  0  0  0  0  0  0  0  0  0
   25.8744    4.3996   20.0836 H   0  0  0  0  0  0  0  0  0  0  0  0
   20.4966    5.6892   25.5072 H   0  0  0  0  0  0  0  0  0  0  0  0
   18.4474    6.9187   26.2172 H   0  0  0  0  0  0  0  0  0  0  0  0
   15.2527    7.5041   22.9161 H   0  0  0  0  0  0  0  0  0  0  0  0
   15.0331    7.7827   21.1457 H   0  0  0  0  0  0  0  0  0  0  0  0
  1  2  1  0
  2  3  1  0
  3  4  1  0
  3  5  2  0
  5  6  1  0
  6  7  1  1
  6  8  1  0
  8  9  2  0
  9 10  1  0
 10 11  1  0
 11 12  1  0
 12 13  2  0
 12 14  1  0
 14 15  2  0
 15 16  1  0
 16 17  2  0
 17 18  1  0
 17 19  1  0
 19 20  2  0
 10 21  2  0
 21 22  1  0
 22 23  2  0
 23 24  1  0
  6 25  1  0
 25 26  1  0
 26 27  2  0
 26 28  2  0
 26  2  1  0
 23  8  1  0
 20 14  1  0
  1 29  1  0
  1 30  1  0
  1 31  1  0
  4 32  1  0
  4 33  1  0
  7 34  1  0
  7 35  1  0
  7 36  1  0
  9 37  1  0
 11 38  1  0
 15 39  1  0
 16 40  1  0
 19 41  1  0
 21 42  1  0
 22 43  1  0
 25 44  1  0
 25 45  1  0
M  END
>  <meeko>  (9) 
{"is_sidechain": false}

>  <source_group>  (9) 
BACE1-401 observed AD isoform

>  <source_system>  (9) 
BACE1_verubecestat_401

>  <source_run>  (9) 
alternate_401_seed3301_ex32

>  <source_seed>  (9) 
3301

>  <vina_pose_rank>  (9) 
9

>  <vina_affinity_kcal_mol>  (9) 
-8.3520000000000003

>  <vina_rmsd_to_crystal_angstrom>  (9) 
7.9946999999999999

$$$$
BACE1_verubecestat_401__alternate_401_seed3301_ex32__pose10
     RDKit          3D

 45 47  0  0  0  0  0  0  0  0999 V2000
   25.8100   13.8590   23.4800 C   0  0  0  0  0  0  0  0  0  0  0  0
   25.4130   13.5840   22.0860 N   0  0  0  0  0  0  0  0  0  0  0  0
   24.0750   13.6580   21.6370 C   0  0  0  0  0  0  0  0  0  0  0  0
   23.2030   14.1540   22.5690 N   0  0  0  0  0  0  0  0  0  0  0  0
   23.6940   13.3160   20.4450 N   0  0  0  0  0  0  0  0  0  0  0  0
   24.6140   12.7000   19.4910 C   0  0  2  0  0  0  0  0  0  0  0  0
   23.9090   12.9100   18.1490 C   0  0  0  0  0  0  0  0  0  0  0  0
   24.7730   11.2070   19.7340 C   0  0  0  0  0  0  0  0  0  0  0  0
   24.0550   10.5600   20.7400 C   0  0  0  0  0  0  0  0  0  0  0  0
   24.1810    9.2120   20.9830 C   0  0  0  0  0  0  0  0  0  0  0  0
   23.4010    8.6860   22.0220 N   0  0  0  0  0  0  0  0  0  0  0  0
   22.6500    9.3710   22.9600 C   0  0  0  0  0  0  0  0  0  0  0  0
   22.6500   10.5850   23.1130 O   0  0  0  0  0  0  0  0  0  0  0  0
   21.7650    8.5280   23.8000 C   0  0  0  0  0  0  0  0  0  0  0  0
   20.8690    9.1210   24.6720 C   0  0  0  0  0  0  0  0  0  0  0  0
   20.0690    8.2870   25.4330 C   0  0  0  0  0  0  0  0  0  0  0  0
   20.1830    6.9170   25.3010 C   0  0  0  0  0  0  0  0  0  0  0  0
   19.4350    6.0670   26.0260 F   0  0  0  0  0  0  0  0  0  0  0  0
   21.1080    6.4200   24.4110 C   0  0  0  0  0  0  0  0  0  0  0  0
   21.9020    7.2050   23.6640 N   0  0  0  0  0  0  0  0  0  0  0  0
   25.0260    8.4320   20.2040 C   0  0  0  0  0  0  0  0  0  0  0  0
   25.7490    9.0570   19.2030 C   0  0  0  0  0  0  0  0  0  0  0  0
   25.6370   10.4170   18.9910 C   0  0  0  0  0  0  0  0  0  0  0  0
   26.3790   11.0110   18.0220 F   0  0  0  0  0  0  0  0  0  0  0  0
   25.9080   13.4810   19.4400 C   0  0  0  0  0  0  0  0  0  0  0  0
   26.7430   13.4160   21.0050 S   0  0  0  0  0  0  0  0  0  0  0  0
   27.5320   14.6310   21.1040 O   0  0  0  0  0  0  0  0  0  0  0  0
   27.2450   12.1070   21.2820 O   0  0  0  0  0  0  0  0  0  0  0  0
   25.1031   13.3693   24.1660 H   0  0  0  0  0  0  0  0  0  0  0  0
   26.8229   13.4680   23.6567 H   0  0  0  0  0  0  0  0  0  0  0  0
   25.8000   14.9447   23.6567 H   0  0  0  0  0  0  0  0  0  0  0  0
   22.2480   14.2440   22.3500 H   0  0  0  0  0  0  0  0  0  0  0  0
   23.5320   14.4210   23.4580 H   0  0  0  0  0  0  0  0  0  0  0  0
   22.8685   13.2199   18.3260 H   0  0  0  0  0  0  0  0  0  0  0  0
   24.4323   13.6913   17.5782 H   0  0  0  0  0  0  0  0  0  0  0  0
   23.9195   11.9697   17.5782 H   0  0  0  0  0  0  0  0  0  0  0  0
   23.3636   11.1487   21.3609 H   0  0  0  0  0  0  0  0  0  0  0  0
   23.3860    7.7040   22.0920 H   0  0  0  0  0  0  0  0  0  0  0  0
   20.7954   10.2152   24.7571 H   0  0  0  0  0  0  0  0  0  0  0  0
   19.3440    8.7142   26.1414 H   0  0  0  0  0  0  0  0  0  0  0  0
   21.2014    5.3290   24.3065 H   0  0  0  0  0  0  0  0  0  0  0  0
   25.1178    7.3497   20.3775 H   0  0  0  0  0  0  0  0  0  0  0  0
   26.4220    8.4624   18.5677 H   0  0  0  0  0  0  0  0  0  0  0  0
   26.5593   13.0503   18.6652 H   0  0  0  0  0  0  0  0  0  0  0  0
   25.6781   14.5308   19.2054 H   0  0  0  0  0  0  0  0  0  0  0  0
  1  2  1  0
  2  3  1  0
  3  4  1  0
  3  5  2  0
  5  6  1  0
  6  7  1  6
  6  8  1  0
  8  9  2  0
  9 10  1  0
 10 11  1  0
 11 12  1  0
 12 13  2  0
 12 14  1  0
 14 15  2  0
 15 16  1  0
 16 17  2  0
 17 18  1  0
 17 19  1  0
 19 20  2  0
 10 21  2  0
 21 22  1  0
 22 23  2  0
 23 24  1  0
  6 25  1  0
 25 26  1  0
 26 27  2  0
 26 28  2  0
 26  2  1  0
 23  8  1  0
 20 14  1  0
  1 29  1  0
  1 30  1  0
  1 31  1  0
  4 32  1  0
  4 33  1  0
  7 34  1  0
  7 35  1  0
  7 36  1  0
  9 37  1  0
 11 38  1  0
 15 39  1  0
 16 40  1  0
 19 41  1  0
 21 42  1  0
 22 43  1  0
 25 44  1  0
 25 45  1  0
M  END
>  <meeko>  (10) 
{"is_sidechain": false}

>  <source_group>  (10) 
BACE1-401 observed AD isoform

>  <source_system>  (10) 
BACE1_verubecestat_401

>  <source_run>  (10) 
alternate_401_seed3301_ex32

>  <source_seed>  (10) 
3301

>  <vina_pose_rank>  (10) 
10

>  <vina_affinity_kcal_mol>  (10) 
-8.3030000000000008

>  <vina_rmsd_to_crystal_angstrom>  (10) 
6.4710999999999999

$$$$
BACE1_verubecestat_401__alternate_401_seed3301_ex32__pose11
     RDKit          3D

 45 47  0  0  0  0  0  0  0  0999 V2000
   22.2320    5.5350   24.8420 C   0  0  0  0  0  0  0  0  0  0  0  0
   21.1190    5.7870   23.9050 N   0  0  0  0  0  0  0  0  0  0  0  0
   21.3010    6.3820   22.6370 C   0  0  0  0  0  0  0  0  0  0  0  0
   22.6130    6.5630   22.2910 N   0  0  0  0  0  0  0  0  0  0  0  0
   20.3250    6.7090   21.8470 N   0  0  0  0  0  0  0  0  0  0  0  0
   18.9290    6.5990   22.2650 C   0  0  2  0  0  0  0  0  0  0  0  0
   18.1700    6.6190   20.9350 C   0  0  0  0  0  0  0  0  0  0  0  0
   18.4870    7.7910   23.1000 C   0  0  0  0  0  0  0  0  0  0  0  0
   19.3960    8.7730   23.4900 C   0  0  0  0  0  0  0  0  0  0  0  0
   19.0250    9.8610   24.2470 C   0  0  0  0  0  0  0  0  0  0  0  0
   20.0360   10.7760   24.5690 N   0  0  0  0  0  0  0  0  0  0  0  0
   20.7820   10.8560   25.7310 C   0  0  0  0  0  0  0  0  0  0  0  0
   20.5810   10.1980   26.7430 O   0  0  0  0  0  0  0  0  0  0  0  0
   21.9230   11.8020   25.6870 C   0  0  0  0  0  0  0  0  0  0  0  0
   22.7840   11.7960   24.6040 C   0  0  0  0  0  0  0  0  0  0  0  0
   23.8340   12.6990   24.6160 C   0  0  0  0  0  0  0  0  0  0  0  0
   23.9850   13.5630   25.6840 C   0  0  0  0  0  0  0  0  0  0  0  0
   24.9940   14.4490   25.7440 F   0  0  0  0  0  0  0  0  0  0  0  0
   23.0800   13.4890   26.7180 C   0  0  0  0  0  0  0  0  0  0  0  0
   22.0560   12.6200   26.7370 N   0  0  0  0  0  0  0  0  0  0  0  0
   17.7020   10.0290   24.6360 C   0  0  0  0  0  0  0  0  0  0  0  0
   16.7860    9.0620   24.2610 C   0  0  0  0  0  0  0  0  0  0  0  0
   17.1790    7.9590   23.5280 C   0  0  0  0  0  0  0  0  0  0  0  0
   16.2670    7.0100   23.1980 F   0  0  0  0  0  0  0  0  0  0  0  0
   18.6810    5.2470   22.8970 C   0  0  0  0  0  0  0  0  0  0  0  0
   19.6310    5.0670   24.3850 S   0  0  0  0  0  0  0  0  0  0  0  0
   19.8750    3.6450   24.5500 O   0  0  0  0  0  0  0  0  0  0  0  0
   19.1540    5.9260   25.4230 O   0  0  0  0  0  0  0  0  0  0  0  0
   21.8665    5.6178   25.8762 H   0  0  0  0  0  0  0  0  0  0  0  0
   22.6310    4.5238   24.6739 H   0  0  0  0  0  0  0  0  0  0  0  0
   23.0277    6.2757   24.6739 H   0  0  0  0  0  0  0  0  0  0  0  0
   22.8420    6.9700   21.4240 H   0  0  0  0  0  0  0  0  0  0  0  0
   23.3280    6.2850   22.9090 H   0  0  0  0  0  0  0  0  0  0  0  0
   17.0879    6.6475   21.1307 H   0  0  0  0  0  0  0  0  0  0  0  0
   18.4621    7.5098   20.3595 H   0  0  0  0  0  0  0  0  0  0  0  0
   18.4148    5.7141   20.3595 H   0  0  0  0  0  0  0  0  0  0  0  0
   20.4474    8.6750   23.1818 H   0  0  0  0  0  0  0  0  0  0  0  0
   20.2420   11.4480   23.8790 H   0  0  0  0  0  0  0  0  0  0  0  0
   22.6399   11.0998   23.7646 H   0  0  0  0  0  0  0  0  0  0  0  0
   24.5458   12.7284   23.7778 H   0  0  0  0  0  0  0  0  0  0  0  0
   23.2010   14.1744   27.5698 H   0  0  0  0  0  0  0  0  0  0  0  0
   17.3917   10.9049   25.2247 H   0  0  0  0  0  0  0  0  0  0  0  0
   15.7306    9.1731   24.5505 H   0  0  0  0  0  0  0  0  0  0  0  0
   17.6118    5.1513   23.1373 H   0  0  0  0  0  0  0  0  0  0  0  0
   18.9840    4.4635   22.1868 H   0  0  0  0  0  0  0  0  0  0  0  0
  1  2  1  0
  2  3  1  0
  3  4  1  0
  3  5  2  0
  5  6  1  0
  6  7  1  6
  6  8  1  0
  8  9  2  0
  9 10  1  0
 10 11  1  0
 11 12  1  0
 12 13  2  0
 12 14  1  0
 14 15  2  0
 15 16  1  0
 16 17  2  0
 17 18  1  0
 17 19  1  0
 19 20  2  0
 10 21  2  0
 21 22  1  0
 22 23  2  0
 23 24  1  0
  6 25  1  0
 25 26  1  0
 26 27  2  0
 26 28  2  0
 26  2  1  0
 23  8  1  0
 20 14  1  0
  1 29  1  0
  1 30  1  0
  1 31  1  0
  4 32  1  0
  4 33  1  0
  7 34  1  0
  7 35  1  0
  7 36  1  0
  9 37  1  0
 11 38  1  0
 15 39  1  0
 16 40  1  0
 19 41  1  0
 21 42  1  0
 22 43  1  0
 25 44  1  0
 25 45  1  0
M  END
>  <meeko>  (11) 
{"is_sidechain": false}

>  <source_group>  (11) 
BACE1-401 observed AD isoform

>  <source_system>  (11) 
BACE1_verubecestat_401

>  <source_run>  (11) 
alternate_401_seed3301_ex32

>  <source_seed>  (11) 
3301

>  <vina_pose_rank>  (11) 
11

>  <vina_affinity_kcal_mol>  (11) 
-8.2520000000000007

>  <vina_rmsd_to_crystal_angstrom>  (11) 
7.3712

$$$$
BACE1_verubecestat_401__alternate_401_seed3301_ex32__pose12
     RDKit          3D

 45 47  0  0  0  0  0  0  0  0999 V2000
   15.8850   13.4670   26.6620 C   0  0  0  0  0  0  0  0  0  0  0  0
   17.2850   13.2920   26.2260 N   0  0  0  0  0  0  0  0  0  0  0  0
   17.7280   13.5940   24.9200 C   0  0  0  0  0  0  0  0  0  0  0  0
   16.7830   14.2050   24.1400 N   0  0  0  0  0  0  0  0  0  0  0  0
   18.9260   13.3450   24.4880 N   0  0  0  0  0  0  0  0  0  0  0  0
   19.8960   12.6080   25.2970 C   0  0  2  0  0  0  0  0  0  0  0  0
   21.2320   12.9610   24.6370 C   0  0  0  0  0  0  0  0  0  0  0  0
   19.6870   11.1040   25.2080 C   0  0  0  0  0  0  0  0  0  0  0  0
   18.8820   10.5460   24.2160 C   0  0  0  0  0  0  0  0  0  0  0  0
   18.6730    9.1890   24.1140 C   0  0  0  0  0  0  0  0  0  0  0  0
   17.8440    8.7590   23.0690 N   0  0  0  0  0  0  0  0  0  0  0  0
   18.1400    7.8690   22.0520 C   0  0  0  0  0  0  0  0  0  0  0  0
   19.2470    7.4000   21.8260 O   0  0  0  0  0  0  0  0  0  0  0  0
   16.9850    7.4530   21.2190 C   0  0  0  0  0  0  0  0  0  0  0  0
   15.7080    7.4680   21.7530 C   0  0  0  0  0  0  0  0  0  0  0  0
   14.6680    7.0680   20.9320 C   0  0  0  0  0  0  0  0  0  0  0  0
   14.9280    6.6780   19.6320 C   0  0  0  0  0  0  0  0  0  0  0  0
   13.9520    6.2740   18.8020 F   0  0  0  0  0  0  0  0  0  0  0  0
   16.2330    6.6920   19.1950 C   0  0  0  0  0  0  0  0  0  0  0  0
   17.2630    7.0690   19.9690 N   0  0  0  0  0  0  0  0  0  0  0  0
   19.2880    8.3140   25.0000 C   0  0  0  0  0  0  0  0  0  0  0  0
   20.0870    8.8500   25.9940 C   0  0  0  0  0  0  0  0  0  0  0  0
   20.2620   10.2160   26.1040 C   0  0  0  0  0  0  0  0  0  0  0  0
   21.0280   10.7180   27.1060 F   0  0  0  0  0  0  0  0  0  0  0  0
   19.9330   13.1670   26.7020 C   0  0  0  0  0  0  0  0  0  0  0  0
   18.3720   12.9320   27.5120 S   0  0  0  0  0  0  0  0  0  0  0  0
   18.2480   13.9980   28.4900 O   0  0  0  0  0  0  0  0  0  0  0  0
   18.1250   11.5520   27.7930 O   0  0  0  0  0  0  0  0  0  0  0  0
   15.8412   13.4725   27.7611 H   0  0  0  0  0  0  0  0  0  0  0  0
   15.4969   14.4207   26.2748 H   0  0  0  0  0  0  0  0  0  0  0  0
   15.2741   12.6382   26.2748 H   0  0  0  0  0  0  0  0  0  0  0  0
   16.9980   14.4550   23.2120 H   0  0  0  0  0  0  0  0  0  0  0  0
   15.8890   14.3940   24.5070 H   0  0  0  0  0  0  0  0  0  0  0  0
   21.9840   13.1597   25.4148 H   0  0  0  0  0  0  0  0  0  0  0  0
   21.5653   12.1201   24.0111 H   0  0  0  0  0  0  0  0  0  0  0  0
   21.1064   13.8568   24.0111 H   0  0  0  0  0  0  0  0  0  0  0  0
   18.3966   11.2136   23.4889 H   0  0  0  0  0  0  0  0  0  0  0  0
   16.9360    9.1390   23.0580 H   0  0  0  0  0  0  0  0  0  0  0  0
   15.5267    7.7857   22.7904 H   0  0  0  0  0  0  0  0  0  0  0  0
   13.6363    7.0605   21.3136 H   0  0  0  0  0  0  0  0  0  0  0  0
   16.4422    6.3791   18.1614 H   0  0  0  0  0  0  0  0  0  0  0  0
   19.1440    7.2269   24.9139 H   0  0  0  0  0  0  0  0  0  0  0  0
   20.5898    8.1795   26.7065 H   0  0  0  0  0  0  0  0  0  0  0  0
   20.7182   12.6520   27.2749 H   0  0  0  0  0  0  0  0  0  0  0  0
   20.1446   14.2451   26.6481 H   0  0  0  0  0  0  0  0  0  0  0  0
  1  2  1  0
  2  3  1  0
  3  4  1  0
  3  5  2  0
  5  6  1  0
  6  7  1  6
  6  8  1  0
  8  9  2  0
  9 10  1  0
 10 11  1  0
 11 12  1  0
 12 13  2  0
 12 14  1  0
 14 15  2  0
 15 16  1  0
 16 17  2  0
 17 18  1  0
 17 19  1  0
 19 20  2  0
 10 21  2  0
 21 22  1  0
 22 23  2  0
 23 24  1  0
  6 25  1  0
 25 26  1  0
 26 27  2  0
 26 28  2  0
 26  2  1  0
 23  8  1  0
 20 14  1  0
  1 29  1  0
  1 30  1  0
  1 31  1  0
  4 32  1  0
  4 33  1  0
  7 34  1  0
  7 35  1  0
  7 36  1  0
  9 37  1  0
 11 38  1  0
 15 39  1  0
 16 40  1  0
 19 41  1  0
 21 42  1  0
 22 43  1  0
 25 44  1  0
 25 45  1  0
M  END
>  <meeko>  (12) 
{"is_sidechain": false}

>  <source_group>  (12) 
BACE1-401 observed AD isoform

>  <source_system>  (12) 
BACE1_verubecestat_401

>  <source_run>  (12) 
alternate_401_seed3301_ex32

>  <source_seed>  (12) 
3301

>  <vina_pose_rank>  (12) 
12

>  <vina_affinity_kcal_mol>  (12) 
-8.2270000000000003

>  <vina_rmsd_to_crystal_angstrom>  (12) 
9.7110000000000003

$$$$
BACE1_verubecestat_401__alternate_401_seed3301_ex32__pose13
     RDKit          3D

 45 47  0  0  0  0  0  0  0  0999 V2000
   26.4730   13.2360   23.8420 C   0  0  0  0  0  0  0  0  0  0  0  0
   26.4680   13.4830   22.3860 N   0  0  0  0  0  0  0  0  0  0  0  0
   25.6140   14.4230   21.7670 C   0  0  0  0  0  0  0  0  0  0  0  0
   24.9020   15.1910   22.6490 N   0  0  0  0  0  0  0  0  0  0  0  0
   25.5190   14.5750   20.4820 N   0  0  0  0  0  0  0  0  0  0  0  0
   26.2110   13.6860   19.5510 C   0  0  2  0  0  0  0  0  0  0  0  0
   26.2120   14.4890   18.2470 C   0  0  0  0  0  0  0  0  0  0  0  0
   25.4500   12.3880   19.3270 C   0  0  0  0  0  0  0  0  0  0  0  0
   26.1170   11.2120   18.9880 C   0  0  0  0  0  0  0  0  0  0  0  0
   25.4540   10.0240   18.7770 C   0  0  0  0  0  0  0  0  0  0  0  0
   26.2430    8.9150   18.4450 N   0  0  0  0  0  0  0  0  0  0  0  0
   26.4830    7.7790   19.1960 C   0  0  0  0  0  0  0  0  0  0  0  0
   26.1360    7.6160   20.3590 O   0  0  0  0  0  0  0  0  0  0  0  0
   27.1910    6.6870   18.4840 C   0  0  0  0  0  0  0  0  0  0  0  0
   26.7010    6.2190   17.2770 C   0  0  0  0  0  0  0  0  0  0  0  0
   27.3990    5.1970   16.6570 C   0  0  0  0  0  0  0  0  0  0  0  0
   28.5410    4.6890   17.2450 C   0  0  0  0  0  0  0  0  0  0  0  0
   29.2460    3.6910   16.6850 F   0  0  0  0  0  0  0  0  0  0  0  0
   28.9460    5.2160   18.4500 C   0  0  0  0  0  0  0  0  0  0  0  0
   28.2860    6.2030   19.0790 N   0  0  0  0  0  0  0  0  0  0  0  0
   24.0740    9.9550   18.9200 C   0  0  0  0  0  0  0  0  0  0  0  0
   23.3950   11.1140   19.2520 C   0  0  0  0  0  0  0  0  0  0  0  0
   24.0700   12.3050   19.4290 C   0  0  0  0  0  0  0  0  0  0  0  0
   23.3770   13.4340   19.7260 F   0  0  0  0  0  0  0  0  0  0  0  0
   27.6550   13.5180   19.9690 C   0  0  0  0  0  0  0  0  0  0  0  0
   27.7610   12.7150   21.5480 S   0  0  0  0  0  0  0  0  0  0  0  0
   28.9980   13.1670   22.1600 O   0  0  0  0  0  0  0  0  0  0  0  0
   27.3550   11.3470   21.4730 O   0  0  0  0  0  0  0  0  0  0  0  0
   26.4536   14.1969   24.3770 H   0  0  0  0  0  0  0  0  0  0  0  0
   25.5866   12.6454   24.1168 H   0  0  0  0  0  0  0  0  0  0  0  0
   27.3825   12.6817   24.1168 H   0  0  0  0  0  0  0  0  0  0  0  0
   24.2790   15.8750   22.3130 H   0  0  0  0  0  0  0  0  0  0  0  0
   25.0130   15.0600   23.6180 H   0  0  0  0  0  0  0  0  0  0  0  0
   26.2133   15.5643   18.4786 H   0  0  0  0  0  0  0  0  0  0  0  0
   27.1098   14.2386   17.6629 H   0  0  0  0  0  0  0  0  0  0  0  0
   25.3135   14.2408   17.6629 H   0  0  0  0  0  0  0  0  0  0  0  0
   27.2120   11.2339   18.8854 H   0  0  0  0  0  0  0  0  0  0  0  0
   26.6810    8.9490   17.5640 H   0  0  0  0  0  0  0  0  0  0  0  0
   25.7911    6.6433   16.8274 H   0  0  0  0  0  0  0  0  0  0  0  0
   27.0450    4.7903   15.6982 H   0  0  0  0  0  0  0  0  0  0  0  0
   29.8534    4.8098   18.9208 H   0  0  0  0  0  0  0  0  0  0  0  0
   23.5366    9.0065   18.7735 H   0  0  0  0  0  0  0  0  0  0  0  0
   22.3024   11.0859   19.3766 H   0  0  0  0  0  0  0  0  0  0  0  0
   28.1798   12.9091   19.2182 H   0  0  0  0  0  0  0  0  0  0  0  0
   28.1191   14.5123   20.0458 H   0  0  0  0  0  0  0  0  0  0  0  0
  1  2  1  0
  2  3  1  0
  3  4  1  0
  3  5  2  0
  5  6  1  0
  6  7  1  6
  6  8  1  0
  8  9  2  0
  9 10  1  0
 10 11  1  0
 11 12  1  0
 12 13  2  0
 12 14  1  0
 14 15  2  0
 15 16  1  0
 16 17  2  0
 17 18  1  0
 17 19  1  0
 19 20  2  0
 10 21  2  0
 21 22  1  0
 22 23  2  0
 23 24  1  0
  6 25  1  0
 25 26  1  0
 26 27  2  0
 26 28  2  0
 26  2  1  0
 23  8  1  0
 20 14  1  0
  1 29  1  0
  1 30  1  0
  1 31  1  0
  4 32  1  0
  4 33  1  0
  7 34  1  0
  7 35  1  0
  7 36  1  0
  9 37  1  0
 11 38  1  0
 15 39  1  0
 16 40  1  0
 19 41  1  0
 21 42  1  0
 22 43  1  0
 25 44  1  0
 25 45  1  0
M  END
>  <meeko>  (13) 
{"is_sidechain": false}

>  <source_group>  (13) 
BACE1-401 observed AD isoform

>  <source_system>  (13) 
BACE1_verubecestat_401

>  <source_run>  (13) 
alternate_401_seed3301_ex32

>  <source_seed>  (13) 
3301

>  <vina_pose_rank>  (13) 
13

>  <vina_affinity_kcal_mol>  (13) 
-8.1940000000000008

>  <vina_rmsd_to_crystal_angstrom>  (13) 
5.6052999999999997

$$$$
BACE1_verubecestat_401__alternate_401_seed3301_ex32__pose14
     RDKit          3D

 45 47  0  0  0  0  0  0  0  0999 V2000
   29.4690   12.9660   20.7420 C   0  0  0  0  0  0  0  0  0  0  0  0
   28.0000   12.8560   20.6450 N   0  0  0  0  0  0  0  0  0  0  0  0
   27.1800   12.5130   21.7420 C   0  0  0  0  0  0  0  0  0  0  0  0
   27.8490   12.4400   22.9350 N   0  0  0  0  0  0  0  0  0  0  0  0
   25.9020   12.3070   21.6510 N   0  0  0  0  0  0  0  0  0  0  0  0
   25.2160   12.2940   20.3600 C   0  0  2  0  0  0  0  0  0  0  0  0
   23.7490   12.4970   20.7490 C   0  0  0  0  0  0  0  0  0  0  0  0
   25.3560   10.9550   19.6530 C   0  0  0  0  0  0  0  0  0  0  0  0
   25.9900    9.8770   20.2700 C   0  0  0  0  0  0  0  0  0  0  0  0
   26.1330    8.6550   19.6530 C   0  0  0  0  0  0  0  0  0  0  0  0
   26.7870    7.6550   20.3850 N   0  0  0  0  0  0  0  0  0  0  0  0
   26.2360    6.5510   21.0090 C   0  0  0  0  0  0  0  0  0  0  0  0
   25.0370    6.3350   21.1310 O   0  0  0  0  0  0  0  0  0  0  0  0
   27.2140    5.5610   21.5250 C   0  0  0  0  0  0  0  0  0  0  0  0
   28.5690    5.7590   21.3230 C   0  0  0  0  0  0  0  0  0  0  0  0
   29.4360    4.8040   21.8230 C   0  0  0  0  0  0  0  0  0  0  0  0
   28.9360    3.7070   22.4970 C   0  0  0  0  0  0  0  0  0  0  0  0
   29.7380    2.7490   22.9920 F   0  0  0  0  0  0  0  0  0  0  0  0
   27.5720    3.5950   22.6430 C   0  0  0  0  0  0  0  0  0  0  0  0
   26.7050    4.5030   22.1630 N   0  0  0  0  0  0  0  0  0  0  0  0
   25.6210    8.4460   18.3790 C   0  0  0  0  0  0  0  0  0  0  0  0
   24.9910    9.5060   17.7500 C   0  0  0  0  0  0  0  0  0  0  0  0
   24.8830   10.7360   18.3680 C   0  0  0  0  0  0  0  0  0  0  0  0
   24.2870   11.7670   17.7170 F   0  0  0  0  0  0  0  0  0  0  0  0
   25.6280   13.4970   19.5410 C   0  0  0  0  0  0  0  0  0  0  0  0
   27.3590   13.4280   19.1530 S   0  0  0  0  0  0  0  0  0  0  0  0
   27.8020   14.8020   18.9930 O   0  0  0  0  0  0  0  0  0  0  0  0
   27.6510   12.3770   18.2300 O   0  0  0  0  0  0  0  0  0  0  0  0
   29.7659   12.9882   21.8009 H   0  0  0  0  0  0  0  0  0  0  0  0
   29.9349   12.1002   20.2487 H   0  0  0  0  0  0  0  0  0  0  0  0
   29.8008   13.8915   20.2487 H   0  0  0  0  0  0  0  0  0  0  0  0
   27.3620   12.2080   23.7580 H   0  0  0  0  0  0  0  0  0  0  0  0
   28.8160   12.6210   22.9690 H   0  0  0  0  0  0  0  0  0  0  0  0
   23.6587   12.5095   21.8452 H   0  0  0  0  0  0  0  0  0  0  0  0
   23.3903   13.4533   20.3406 H   0  0  0  0  0  0  0  0  0  0  0  0
   23.1441   11.6740   20.3406 H   0  0  0  0  0  0  0  0  0  0  0  0
   26.3902   10.0080   21.2862 H   0  0  0  0  0  0  0  0  0  0  0  0
   27.7640    7.7510   20.4650 H   0  0  0  0  0  0  0  0  0  0  0  0
   28.9425    6.6428   20.7850 H   0  0  0  0  0  0  0  0  0  0  0  0
   30.5212    4.9180   21.6841 H   0  0  0  0  0  0  0  0  0  0  0  0
   27.1724    2.7208   23.1779 H   0  0  0  0  0  0  0  0  0  0  0  0
   25.7133    7.4677   17.8847 H   0  0  0  0  0  0  0  0  0  0  0  0
   24.5703    9.3664   16.7433 H   0  0  0  0  0  0  0  0  0  0  0  0
   25.0486   13.5131   18.6061 H   0  0  0  0  0  0  0  0  0  0  0  0
   25.4325   14.4075   20.1265 H   0  0  0  0  0  0  0  0  0  0  0  0
  1  2  1  0
  2  3  1  0
  3  4  1  0
  3  5  2  0
  5  6  1  0
  6  7  1  1
  6  8  1  0
  8  9  2  0
  9 10  1  0
 10 11  1  0
 11 12  1  0
 12 13  2  0
 12 14  1  0
 14 15  2  0
 15 16  1  0
 16 17  2  0
 17 18  1  0
 17 19  1  0
 19 20  2  0
 10 21  2  0
 21 22  1  0
 22 23  2  0
 23 24  1  0
  6 25  1  0
 25 26  1  0
 26 27  2  0
 26 28  2  0
 26  2  1  0
 23  8  1  0
 20 14  1  0
  1 29  1  0
  1 30  1  0
  1 31  1  0
  4 32  1  0
  4 33  1  0
  7 34  1  0
  7 35  1  0
  7 36  1  0
  9 37  1  0
 11 38  1  0
 15 39  1  0
 16 40  1  0
 19 41  1  0
 21 42  1  0
 22 43  1  0
 25 44  1  0
 25 45  1  0
M  END
>  <meeko>  (14) 
{"is_sidechain": false}

>  <source_group>  (14) 
BACE1-401 observed AD isoform

>  <source_system>  (14) 
BACE1_verubecestat_401

>  <source_run>  (14) 
alternate_401_seed3301_ex32

>  <source_seed>  (14) 
3301

>  <vina_pose_rank>  (14) 
14

>  <vina_affinity_kcal_mol>  (14) 
-8.1660000000000004

>  <vina_rmsd_to_crystal_angstrom>  (14) 
5.2606000000000002

$$$$
BACE1_verubecestat_401__alternate_401_seed3301_ex32__pose15
     RDKit          3D

 45 47  0  0  0  0  0  0  0  0999 V2000
   17.0770    8.4700   21.7070 C   0  0  0  0  0  0  0  0  0  0  0  0
   17.8420    7.9150   22.8410 N   0  0  0  0  0  0  0  0  0  0  0  0
   18.3880    8.7160   23.8680 C   0  0  0  0  0  0  0  0  0  0  0  0
   18.0180   10.0330   23.8010 N   0  0  0  0  0  0  0  0  0  0  0  0
   19.1530    8.2590   24.8110 N   0  0  0  0  0  0  0  0  0  0  0  0
   19.6180    6.8730   24.8180 C   0  0  2  0  0  0  0  0  0  0  0  0
   20.0490    6.6640   26.2720 C   0  0  0  0  0  0  0  0  0  0  0  0
   20.8240    6.6710   23.9140 C   0  0  0  0  0  0  0  0  0  0  0  0
   21.4150    7.7460   23.2520 C   0  0  0  0  0  0  0  0  0  0  0  0
   22.5060    7.5920   22.4260 C   0  0  0  0  0  0  0  0  0  0  0  0
   23.0050    8.7530   21.8230 N   0  0  0  0  0  0  0  0  0  0  0  0
   24.1970    8.9200   21.1390 C   0  0  0  0  0  0  0  0  0  0  0  0
   25.0870    8.0830   21.0610 O   0  0  0  0  0  0  0  0  0  0  0  0
   24.3460   10.2160   20.4330 C   0  0  0  0  0  0  0  0  0  0  0  0
   23.3770   10.6290   19.5360 C   0  0  0  0  0  0  0  0  0  0  0  0
   23.5680   11.8450   18.9040 C   0  0  0  0  0  0  0  0  0  0  0  0
   24.6930   12.5970   19.1830 C   0  0  0  0  0  0  0  0  0  0  0  0
   24.9250   13.7790   18.5880 F   0  0  0  0  0  0  0  0  0  0  0  0
   25.6030   12.0980   20.0870 C   0  0  0  0  0  0  0  0  0  0  0  0
   25.4480   10.9190   20.7120 N   0  0  0  0  0  0  0  0  0  0  0  0
   23.0760    6.3390   22.2400 C   0  0  0  0  0  0  0  0  0  0  0  0
   22.5000    5.2600   22.8870 C   0  0  0  0  0  0  0  0  0  0  0  0
   21.3870    5.4240   23.6870 C   0  0  0  0  0  0  0  0  0  0  0  0
   20.8230    4.3450   24.2870 F   0  0  0  0  0  0  0  0  0  0  0  0
   18.4600    5.9350   24.5600 C   0  0  0  0  0  0  0  0  0  0  0  0
   17.7910    6.1970   22.9370 S   0  0  0  0  0  0  0  0  0  0  0  0
   16.3920    5.8110   22.9980 O   0  0  0  0  0  0  0  0  0  0  0  0
   18.6980    5.7700   21.9180 O   0  0  0  0  0  0  0  0  0  0  0  0
   16.2421    9.0757   22.0893 H   0  0  0  0  0  0  0  0  0  0  0  0
   17.7368    9.1009   21.0933 H   0  0  0  0  0  0  0  0  0  0  0  0
   16.6820    7.6470   21.0933 H   0  0  0  0  0  0  0  0  0  0  0  0
   18.3480   10.6710   24.4740 H   0  0  0  0  0  0  0  0  0  0  0  0
   17.4210   10.3410   23.0810 H   0  0  0  0  0  0  0  0  0  0  0  0
   19.2659    7.0437   26.9448 H   0  0  0  0  0  0  0  0  0  0  0  0
   20.2035    5.5909   26.4580 H   0  0  0  0  0  0  0  0  0  0  0  0
   20.9873    7.2072   26.4580 H   0  0  0  0  0  0  0  0  0  0  0  0
   20.9951    8.7527   23.3944 H   0  0  0  0  0  0  0  0  0  0  0  0
   22.4360    9.5530   21.8950 H   0  0  0  0  0  0  0  0  0  0  0  0
   22.4881   10.0137   19.3329 H   0  0  0  0  0  0  0  0  0  0  0  0
   22.8253   12.2124   18.1805 H   0  0  0  0  0  0  0  0  0  0  0  0
   26.5009   12.6936   20.3085 H   0  0  0  0  0  0  0  0  0  0  0  0
   23.9592    6.2084   21.5974 H   0  0  0  0  0  0  0  0  0  0  0  0
   22.9351    4.2575   22.7621 H   0  0  0  0  0  0  0  0  0  0  0  0
   18.8115    4.8959   24.6424 H   0  0  0  0  0  0  0  0  0  0  0  0
   17.6731    6.1314   25.3031 H   0  0  0  0  0  0  0  0  0  0  0  0
  1  2  1  0
  2  3  1  0
  3  4  1  0
  3  5  2  0
  5  6  1  0
  6  7  1  1
  6  8  1  0
  8  9  2  0
  9 10  1  0
 10 11  1  0
 11 12  1  0
 12 13  2  0
 12 14  1  0
 14 15  2  0
 15 16  1  0
 16 17  2  0
 17 18  1  0
 17 19  1  0
 19 20  2  0
 10 21  2  0
 21 22  1  0
 22 23  2  0
 23 24  1  0
  6 25  1  0
 25 26  1  0
 26 27  2  0
 26 28  2  0
 26  2  1  0
 23  8  1  0
 20 14  1  0
  1 29  1  0
  1 30  1  0
  1 31  1  0
  4 32  1  0
  4 33  1  0
  7 34  1  0
  7 35  1  0
  7 36  1  0
  9 37  1  0
 11 38  1  0
 15 39  1  0
 16 40  1  0
 19 41  1  0
 21 42  1  0
 22 43  1  0
 25 44  1  0
 25 45  1  0
M  END
>  <meeko>  (15) 
{"is_sidechain": false}

>  <source_group>  (15) 
BACE1-401 observed AD isoform

>  <source_system>  (15) 
BACE1_verubecestat_401

>  <source_run>  (15) 
alternate_401_seed3301_ex32

>  <source_seed>  (15) 
3301

>  <vina_pose_rank>  (15) 
15

>  <vina_affinity_kcal_mol>  (15) 
-8.1539999999999999

>  <vina_rmsd_to_crystal_angstrom>  (15) 
6.2950999999999997

$$$$
BACE1_verubecestat_401__alternate_401_seed3301_ex32__pose16
     RDKit          3D

 45 47  0  0  0  0  0  0  0  0999 V2000
   28.6040   10.4470   22.3250 C   0  0  0  0  0  0  0  0  0  0  0  0
   28.1060   11.7030   21.7300 N   0  0  0  0  0  0  0  0  0  0  0  0
   27.4650   12.7110   22.4830 C   0  0  0  0  0  0  0  0  0  0  0  0
   27.4820   12.4900   23.8340 N   0  0  0  0  0  0  0  0  0  0  0  0
   26.9270   13.7700   21.9610 N   0  0  0  0  0  0  0  0  0  0  0  0
   26.8310   13.9480   20.5130 C   0  0  2  0  0  0  0  0  0  0  0  0
   26.5950   15.4540   20.3680 C   0  0  0  0  0  0  0  0  0  0  0  0
   25.6420   13.2050   19.9240 C   0  0  0  0  0  0  0  0  0  0  0  0
   24.8820   12.3320   20.7000 C   0  0  0  0  0  0  0  0  0  0  0  0
   23.8020   11.6450   20.1930 C   0  0  0  0  0  0  0  0  0  0  0  0
   23.1220   10.8010   21.0800 N   0  0  0  0  0  0  0  0  0  0  0  0
   23.4740    9.5290   21.4940 C   0  0  0  0  0  0  0  0  0  0  0  0
   24.4000    8.8710   21.0370 O   0  0  0  0  0  0  0  0  0  0  0  0
   22.6600    8.9760   22.6030 C   0  0  0  0  0  0  0  0  0  0  0  0
   22.2800    7.6450   22.5840 C   0  0  0  0  0  0  0  0  0  0  0  0
   21.5200    7.1820   23.6430 C   0  0  0  0  0  0  0  0  0  0  0  0
   21.1720    8.0410   24.6680 C   0  0  0  0  0  0  0  0  0  0  0  0
   20.4270    7.6390   25.7120 F   0  0  0  0  0  0  0  0  0  0  0  0
   21.5930    9.3500   24.5940 C   0  0  0  0  0  0  0  0  0  0  0  0
   22.3270    9.8290   23.5770 N   0  0  0  0  0  0  0  0  0  0  0  0
   23.4160   11.8200   18.8700 C   0  0  0  0  0  0  0  0  0  0  0  0
   24.1610   12.6800   18.0830 C   0  0  0  0  0  0  0  0  0  0  0  0
   25.2610   13.3390   18.5970 C   0  0  0  0  0  0  0  0  0  0  0  0
   25.9930   14.1550   17.7960 F   0  0  0  0  0  0  0  0  0  0  0  0
   28.1630   13.6440   19.8630 C   0  0  0  0  0  0  0  0  0  0  0  0
   28.6000   11.9390   20.0980 S   0  0  0  0  0  0  0  0  0  0  0  0
   30.0500   11.8770   20.0740 O   0  0  0  0  0  0  0  0  0  0  0  0
   27.7460   11.0690   19.3520 O   0  0  0  0  0  0  0  0  0  0  0  0
   28.5736   10.5236   23.4219 H   0  0  0  0  0  0  0  0  0  0  0  0
   27.9698    9.6097   21.9982 H   0  0  0  0  0  0  0  0  0  0  0  0
   29.6396   10.2718   21.9982 H   0  0  0  0  0  0  0  0  0  0  0  0
   27.0600   13.1380   24.4440 H   0  0  0  0  0  0  0  0  0  0  0  0
   27.9160   11.6840   24.1960 H   0  0  0  0  0  0  0  0  0  0  0  0
   26.5233   15.9116   21.3657 H   0  0  0  0  0  0  0  0  0  0  0  0
   27.4334   15.9052   19.8171 H   0  0  0  0  0  0  0  0  0  0  0  0
   25.6588   15.6271   19.8171 H   0  0  0  0  0  0  0  0  0  0  0  0
   25.1548   12.1865   21.7557 H   0  0  0  0  0  0  0  0  0  0  0  0
   22.2860   11.1600   21.4570 H   0  0  0  0  0  0  0  0  0  0  0  0
   22.5716    6.9803   21.7575 H   0  0  0  0  0  0  0  0  0  0  0  0
   21.1933    6.1320   23.6692 H   0  0  0  0  0  0  0  0  0  0  0  0
   21.3145   10.0363   25.4073 H   0  0  0  0  0  0  0  0  0  0  0  0
   22.5435   11.2902   18.4601 H   0  0  0  0  0  0  0  0  0  0  0  0
   23.8735   12.8413   17.0336 H   0  0  0  0  0  0  0  0  0  0  0  0
   28.0956   13.8545   18.7854 H   0  0  0  0  0  0  0  0  0  0  0  0
   28.9356   14.2748   20.3269 H   0  0  0  0  0  0  0  0  0  0  0  0
  1  2  1  0
  2  3  1  0
  3  4  1  0
  3  5  2  0
  5  6  1  0
  6  7  1  1
  6  8  1  0
  8  9  2  0
  9 10  1  0
 10 11  1  0
 11 12  1  0
 12 13  2  0
 12 14  1  0
 14 15  2  0
 15 16  1  0
 16 17  2  0
 17 18  1  0
 17 19  1  0
 19 20  2  0
 10 21  2  0
 21 22  1  0
 22 23  2  0
 23 24  1  0
  6 25  1  0
 25 26  1  0
 26 27  2  0
 26 28  2  0
 26  2  1  0
 23  8  1  0
 20 14  1  0
  1 29  1  0
  1 30  1  0
  1 31  1  0
  4 32  1  0
  4 33  1  0
  7 34  1  0
  7 35  1  0
  7 36  1  0
  9 37  1  0
 11 38  1  0
 15 39  1  0
 16 40  1  0
 19 41  1  0
 21 42  1  0
 22 43  1  0
 25 44  1  0
 25 45  1  0
M  END
>  <meeko>  (16) 
{"is_sidechain": false}

>  <source_group>  (16) 
BACE1-401 observed AD isoform

>  <source_system>  (16) 
BACE1_verubecestat_401

>  <source_run>  (16) 
alternate_401_seed3301_ex32

>  <source_seed>  (16) 
3301

>  <vina_pose_rank>  (16) 
16

>  <vina_affinity_kcal_mol>  (16) 
-8.1180000000000003

>  <vina_rmsd_to_crystal_angstrom>  (16) 
6.7122999999999999

$$$$
BACE1_verubecestat_401__alternate_401_seed3301_ex32__pose17
     RDKit          3D

 45 47  0  0  0  0  0  0  0  0999 V2000
   17.7490   15.5180   26.5670 C   0  0  0  0  0  0  0  0  0  0  0  0
   18.3980   14.2030   26.7390 N   0  0  0  0  0  0  0  0  0  0  0  0
   18.8370   13.7190   27.9920 C   0  0  0  0  0  0  0  0  0  0  0  0
   18.4720   14.5060   29.0510 N   0  0  0  0  0  0  0  0  0  0  0  0
   19.5050   12.6170   28.1460 N   0  0  0  0  0  0  0  0  0  0  0  0
   19.9700   11.8350   27.0020 C   0  0  2  0  0  0  0  0  0  0  0  0
   20.2550   10.4620   27.6180 C   0  0  0  0  0  0  0  0  0  0  0  0
   21.2610   12.3890   26.4190 C   0  0  0  0  0  0  0  0  0  0  0  0
   21.6060   12.1610   25.0880 C   0  0  0  0  0  0  0  0  0  0  0  0
   22.7690   12.6480   24.5350 C   0  0  0  0  0  0  0  0  0  0  0  0
   22.9950   12.3490   23.1850 N   0  0  0  0  0  0  0  0  0  0  0  0
   23.3540   13.2120   22.1650 C   0  0  0  0  0  0  0  0  0  0  0  0
   23.4100   14.4320   22.2610 O   0  0  0  0  0  0  0  0  0  0  0  0
   23.7270   12.5610   20.8860 C   0  0  0  0  0  0  0  0  0  0  0  0
   23.4440   11.2210   20.6850 C   0  0  0  0  0  0  0  0  0  0  0  0
   23.8150   10.6640   19.4740 C   0  0  0  0  0  0  0  0  0  0  0  0
   24.4390   11.4440   18.5200 C   0  0  0  0  0  0  0  0  0  0  0  0
   24.8260   10.9450   17.3340 F   0  0  0  0  0  0  0  0  0  0  0  0
   24.6840   12.7660   18.8150 C   0  0  0  0  0  0  0  0  0  0  0  0
   24.3410   13.3330   19.9830 N   0  0  0  0  0  0  0  0  0  0  0  0
   23.6420   13.4150   25.2960 C   0  0  0  0  0  0  0  0  0  0  0  0
   23.3180   13.6480   26.6200 C   0  0  0  0  0  0  0  0  0  0  0  0
   22.1630   13.1260   27.1700 C   0  0  0  0  0  0  0  0  0  0  0  0
   21.8830   13.3450   28.4810 F   0  0  0  0  0  0  0  0  0  0  0  0
   18.8460   11.6500   26.0070 C   0  0  0  0  0  0  0  0  0  0  0  0
   18.3420   13.2120   25.3320 S   0  0  0  0  0  0  0  0  0  0  0  0
   16.9450   13.0720   24.9610 O   0  0  0  0  0  0  0  0  0  0  0  0
   19.3470   13.7690   24.4820 O   0  0  0  0  0  0  0  0  0  0  0  0
   17.5344   15.9529   27.5543 H   0  0  0  0  0  0  0  0  0  0  0  0
   18.4200   16.1879   26.0093 H   0  0  0  0  0  0  0  0  0  0  0  0
   16.8092   15.3929   26.0093 H   0  0  0  0  0  0  0  0  0  0  0  0
   18.7310   14.2520   29.9650 H   0  0  0  0  0  0  0  0  0  0  0  0
   17.9490   15.3260   28.8970 H   0  0  0  0  0  0  0  0  0  0  0  0
   20.2385   10.5417   28.7150 H   0  0  0  0  0  0  0  0  0  0  0  0
   19.4862    9.7466   27.2907 H   0  0  0  0  0  0  0  0  0  0  0  0
   21.2450   10.1116   27.2907 H   0  0  0  0  0  0  0  0  0  0  0  0
   20.9250   11.5711   24.4570 H   0  0  0  0  0  0  0  0  0  0  0  0
   22.8840   11.4050   22.9290 H   0  0  0  0  0  0  0  0  0  0  0  0
   22.9429   10.6214   21.4591 H   0  0  0  0  0  0  0  0  0  0  0  0
   23.6134    9.6018   19.2713 H   0  0  0  0  0  0  0  0  0  0  0  0
   25.1846   13.3876   18.0580 H   0  0  0  0  0  0  0  0  0  0  0  0
   24.5641   13.8250   24.8582 H   0  0  0  0  0  0  0  0  0  0  0  0
   23.9888   14.2571   27.2437 H   0  0  0  0  0  0  0  0  0  0  0  0
   19.1902   10.9980   25.1906 H   0  0  0  0  0  0  0  0  0  0  0  0
   17.9881   11.1946   26.5234 H   0  0  0  0  0  0  0  0  0  0  0  0
  1  2  1  0
  2  3  1  0
  3  4  1  0
  3  5  2  0
  5  6  1  0
  6  7  1  1
  6  8  1  0
  8  9  2  0
  9 10  1  0
 10 11  1  0
 11 12  1  0
 12 13  2  0
 12 14  1  0
 14 15  2  0
 15 16  1  0
 16 17  2  0
 17 18  1  0
 17 19  1  0
 19 20  2  0
 10 21  2  0
 21 22  1  0
 22 23  2  0
 23 24  1  0
  6 25  1  0
 25 26  1  0
 26 27  2  0
 26 28  2  0
 26  2  1  0
 23  8  1  0
 20 14  1  0
  1 29  1  0
  1 30  1  0
  1 31  1  0
  4 32  1  0
  4 33  1  0
  7 34  1  0
  7 35  1  0
  7 36  1  0
  9 37  1  0
 11 38  1  0
 15 39  1  0
 16 40  1  0
 19 41  1  0
 21 42  1  0
 22 43  1  0
 25 44  1  0
 25 45  1  0
M  END
>  <meeko>  (17) 
{"is_sidechain": false}

>  <source_group>  (17) 
BACE1-401 observed AD isoform

>  <source_system>  (17) 
BACE1_verubecestat_401

>  <source_run>  (17) 
alternate_401_seed3301_ex32

>  <source_seed>  (17) 
3301

>  <vina_pose_rank>  (17) 
17

>  <vina_affinity_kcal_mol>  (17) 
-8.1170000000000009

>  <vina_rmsd_to_crystal_angstrom>  (17) 
6.6123000000000003

$$$$
BACE1_verubecestat_401__alternate_401_seed3301_ex32__pose18
     RDKit          3D

 45 47  0  0  0  0  0  0  0  0999 V2000
   16.8550    4.1180   19.9400 C   0  0  0  0  0  0  0  0  0  0  0  0
   17.3390    5.1610   20.8670 N   0  0  0  0  0  0  0  0  0  0  0  0
   18.1580    6.2360   20.4560 C   0  0  0  0  0  0  0  0  0  0  0  0
   18.3380    6.3110   19.1010 N   0  0  0  0  0  0  0  0  0  0  0  0
   18.6800    7.0980   21.2730 N   0  0  0  0  0  0  0  0  0  0  0  0
   18.5600    6.9530   22.7230 C   0  0  2  0  0  0  0  0  0  0  0  0
   18.8750    8.3610   23.2350 C   0  0  0  0  0  0  0  0  0  0  0  0
   19.5880    5.9850   23.2870 C   0  0  0  0  0  0  0  0  0  0  0  0
   20.7040    5.6050   22.5420 C   0  0  0  0  0  0  0  0  0  0  0  0
   21.6480    4.7280   23.0260 C   0  0  0  0  0  0  0  0  0  0  0  0
   22.7230    4.4320   22.1770 N   0  0  0  0  0  0  0  0  0  0  0  0
   24.0520    4.2400   22.5120 C   0  0  0  0  0  0  0  0  0  0  0  0
   24.5330    4.4290   23.6210 O   0  0  0  0  0  0  0  0  0  0  0  0
   24.9130    3.7300   21.4170 C   0  0  0  0  0  0  0  0  0  0  0  0
   24.6570    4.0990   20.1080 C   0  0  0  0  0  0  0  0  0  0  0  0
   25.4910    3.5930   19.1260 C   0  0  0  0  0  0  0  0  0  0  0  0
   26.5330    2.7560   19.4740 C   0  0  0  0  0  0  0  0  0  0  0  0
   27.3630    2.2330   18.5550 F   0  0  0  0  0  0  0  0  0  0  0  0
   26.7040    2.4420   20.8030 C   0  0  0  0  0  0  0  0  0  0  0  0
   25.9070    2.9120   21.7770 N   0  0  0  0  0  0  0  0  0  0  0  0
   21.5280    4.2010   24.3060 C   0  0  0  0  0  0  0  0  0  0  0  0
   20.4250    4.5640   25.0580 C   0  0  0  0  0  0  0  0  0  0  0  0
   19.4690    5.4200   24.5470 C   0  0  0  0  0  0  0  0  0  0  0  0
   18.3810    5.7370   25.2950 F   0  0  0  0  0  0  0  0  0  0  0  0
   17.1260    6.6550   23.0980 C   0  0  0  0  0  0  0  0  0  0  0  0
   16.6130    5.0940   22.4270 S   0  0  0  0  0  0  0  0  0  0  0  0
   15.1770    5.1760   22.2370 O   0  0  0  0  0  0  0  0  0  0  0  0
   17.2780    4.0010   23.0660 O   0  0  0  0  0  0  0  0  0  0  0  0
   16.4609    3.2686   20.5173 H   0  0  0  0  0  0  0  0  0  0  0  0
   16.0571    4.5323   19.3062 H   0  0  0  0  0  0  0  0  0  0  0  0
   17.6865    3.7762   19.3062 H   0  0  0  0  0  0  0  0  0  0  0  0
   18.8940    7.0280   18.7180 H   0  0  0  0  0  0  0  0  0  0  0  0
   17.9110    5.6500   18.5100 H   0  0  0  0  0  0  0  0  0  0  0  0
   18.8747    8.3597   24.3350 H   0  0  0  0  0  0  0  0  0  0  0  0
   19.8648    8.6714   22.8689 H   0  0  0  0  0  0  0  0  0  0  0  0
   18.1118    9.0635   22.8689 H   0  0  0  0  0  0  0  0  0  0  0  0
   20.8344    6.0208   21.5320 H   0  0  0  0  0  0  0  0  0  0  0  0
   22.5040    4.3500   21.2210 H   0  0  0  0  0  0  0  0  0  0  0  0
   23.8218    4.7695   19.8573 H   0  0  0  0  0  0  0  0  0  0  0  0
   25.3243    3.8568   18.0712 H   0  0  0  0  0  0  0  0  0  0  0  0
   27.5328    1.7743   21.0810 H   0  0  0  0  0  0  0  0  0  0  0  0
   22.2876    3.5154   24.7095 H   0  0  0  0  0  0  0  0  0  0  0  0
   20.3078    4.1656   26.0766 H   0  0  0  0  0  0  0  0  0  0  0  0
   17.0386    6.6230   24.1941 H   0  0  0  0  0  0  0  0  0  0  0  0
   16.4814    7.4456   22.6865 H   0  0  0  0  0  0  0  0  0  0  0  0
  1  2  1  0
  2  3  1  0
  3  4  1  0
  3  5  2  0
  5  6  1  0
  6  7  1  1
  6  8  1  0
  8  9  2  0
  9 10  1  0
 10 11  1  0
 11 12  1  0
 12 13  2  0
 12 14  1  0
 14 15  2  0
 15 16  1  0
 16 17  2  0
 17 18  1  0
 17 19  1  0
 19 20  2  0
 10 21  2  0
 21 22  1  0
 22 23  2  0
 23 24  1  0
  6 25  1  0
 25 26  1  0
 26 27  2  0
 26 28  2  0
 26  2  1  0
 23  8  1  0
 20 14  1  0
  1 29  1  0
  1 30  1  0
  1 31  1  0
  4 32  1  0
  4 33  1  0
  7 34  1  0
  7 35  1  0
  7 36  1  0
  9 37  1  0
 11 38  1  0
 15 39  1  0
 16 40  1  0
 19 41  1  0
 21 42  1  0
 22 43  1  0
 25 44  1  0
 25 45  1  0
M  END
>  <meeko>  (18) 
{"is_sidechain": false}

>  <source_group>  (18) 
BACE1-401 observed AD isoform

>  <source_system>  (18) 
BACE1_verubecestat_401

>  <source_run>  (18) 
alternate_401_seed3301_ex32

>  <source_seed>  (18) 
3301

>  <vina_pose_rank>  (18) 
18

>  <vina_affinity_kcal_mol>  (18) 
-7.9980000000000002

>  <vina_rmsd_to_crystal_angstrom>  (18) 
7.8571999999999997

$$$$
BACE1_verubecestat_401__alternate_401_seed3301_ex32__pose19
     RDKit          3D

 45 47  0  0  0  0  0  0  0  0999 V2000
   26.3670   15.7460   23.1210 C   0  0  0  0  0  0  0  0  0  0  0  0
   26.8560   14.6090   22.3160 N   0  0  0  0  0  0  0  0  0  0  0  0
   27.4220   14.7610   21.0310 C   0  0  0  0  0  0  0  0  0  0  0  0
   27.6170   16.0650   20.6610 N   0  0  0  0  0  0  0  0  0  0  0  0
   27.7560   13.7670   20.2670 N   0  0  0  0  0  0  0  0  0  0  0  0
   27.4560   12.3830   20.6320 C   0  0  2  0  0  0  0  0  0  0  0  0
   28.4080   11.5800   19.7410 C   0  0  0  0  0  0  0  0  0  0  0  0
   26.0240   12.0010   20.2910 C   0  0  0  0  0  0  0  0  0  0  0  0
   25.3410   11.0370   21.0310 C   0  0  0  0  0  0  0  0  0  0  0  0
   24.0460   10.6690   20.7440 C   0  0  0  0  0  0  0  0  0  0  0  0
   23.4740    9.6900   21.5670 N   0  0  0  0  0  0  0  0  0  0  0  0
   22.7660    9.8660   22.7420 C   0  0  0  0  0  0  0  0  0  0  0  0
   22.6340   10.9300   23.3330 O   0  0  0  0  0  0  0  0  0  0  0  0
   22.1060    8.6480   23.2720 C   0  0  0  0  0  0  0  0  0  0  0  0
   22.2240    7.4470   22.5940 C   0  0  0  0  0  0  0  0  0  0  0  0
   21.5860    6.3440   23.1310 C   0  0  0  0  0  0  0  0  0  0  0  0
   20.8680    6.4680   24.3050 C   0  0  0  0  0  0  0  0  0  0  0  0
   20.2240    5.4270   24.8590 F   0  0  0  0  0  0  0  0  0  0  0  0
   20.8030    7.7060   24.9030 C   0  0  0  0  0  0  0  0  0  0  0  0
   21.4060    8.7970   24.4020 N   0  0  0  0  0  0  0  0  0  0  0  0
   23.3580   11.2750   19.7000 C   0  0  0  0  0  0  0  0  0  0  0  0
   24.0220   12.2310   18.9520 C   0  0  0  0  0  0  0  0  0  0  0  0
   25.3320   12.5670   19.2320 C   0  0  0  0  0  0  0  0  0  0  0  0
   25.9700   13.4880   18.4650 F   0  0  0  0  0  0  0  0  0  0  0  0
   27.8650   12.1240   22.0650 C   0  0  0  0  0  0  0  0  0  0  0  0
   26.9090   13.1200   23.1800 S   0  0  0  0  0  0  0  0  0  0  0  0
   27.7340   13.3340   24.3550 O   0  0  0  0  0  0  0  0  0  0  0  0
   25.5430   12.7010   23.2230 O   0  0  0  0  0  0  0  0  0  0  0  0
   26.4690   15.5089   24.1903 H   0  0  0  0  0  0  0  0  0  0  0  0
   26.9589   16.6429   22.8862 H   0  0  0  0  0  0  0  0  0  0  0  0
   25.3088   15.9332   22.8862 H   0  0  0  0  0  0  0  0  0  0  0  0
   28.0070   16.2730   19.7820 H   0  0  0  0  0  0  0  0  0  0  0  0
   27.3680   16.7930   21.2750 H   0  0  0  0  0  0  0  0  0  0  0  0
   29.0972   10.9987   20.3711 H   0  0  0  0  0  0  0  0  0  0  0  0
   27.8262   10.8957   19.1059 H   0  0  0  0  0  0  0  0  0  0  0  0
   28.9844   12.2688   19.1059 H   0  0  0  0  0  0  0  0  0  0  0  0
   25.8553   10.5531   21.8744 H   0  0  0  0  0  0  0  0  0  0  0  0
   23.5910    8.7590   21.2710 H   0  0  0  0  0  0  0  0  0  0  0  0
   22.8040    7.3728   21.6623 H   0  0  0  0  0  0  0  0  0  0  0  0
   21.6499    5.3696   22.6245 H   0  0  0  0  0  0  0  0  0  0  0  0
   20.2296    7.8070   25.8363 H   0  0  0  0  0  0  0  0  0  0  0  0
   22.3163   11.0028   19.4748 H   0  0  0  0  0  0  0  0  0  0  0  0
   23.4993   12.7303   18.1229 H   0  0  0  0  0  0  0  0  0  0  0  0
   27.7031   11.0617   22.3004 H   0  0  0  0  0  0  0  0  0  0  0  0
   28.9276   12.3831   22.1818 H   0  0  0  0  0  0  0  0  0  0  0  0
  1  2  1  0
  2  3  1  0
  3  4  1  0
  3  5  2  0
  5  6  1  0
  6  7  1  6
  6  8  1  0
  8  9  2  0
  9 10  1  0
 10 11  1  0
 11 12  1  0
 12 13  2  0
 12 14  1  0
 14 15  2  0
 15 16  1  0
 16 17  2  0
 17 18  1  0
 17 19  1  0
 19 20  2  0
 10 21  2  0
 21 22  1  0
 22 23  2  0
 23 24  1  0
  6 25  1  0
 25 26  1  0
 26 27  2  0
 26 28  2  0
 26  2  1  0
 23  8  1  0
 20 14  1  0
  1 29  1  0
  1 30  1  0
  1 31  1  0
  4 32  1  0
  4 33  1  0
  7 34  1  0
  7 35  1  0
  7 36  1  0
  9 37  1  0
 11 38  1  0
 15 39  1  0
 16 40  1  0
 19 41  1  0
 21 42  1  0
 22 43  1  0
 25 44  1  0
 25 45  1  0
M  END
>  <meeko>  (19) 
{"is_sidechain": false}

>  <source_group>  (19) 
BACE1-401 observed AD isoform

>  <source_system>  (19) 
BACE1_verubecestat_401

>  <source_run>  (19) 
alternate_401_seed3301_ex32

>  <source_seed>  (19) 
3301

>  <vina_pose_rank>  (19) 
19

>  <vina_affinity_kcal_mol>  (19) 
-7.9909999999999997

>  <vina_rmsd_to_crystal_angstrom>  (19) 
6.7584

$$$$
BACE1_verubecestat_401__alternate_401_seed3301_ex32__pose20
     RDKit          3D

 45 47  0  0  0  0  0  0  0  0999 V2000
   24.0670   13.3230   18.1000 C   0  0  0  0  0  0  0  0  0  0  0  0
   25.3460   12.8940   18.7010 N   0  0  0  0  0  0  0  0  0  0  0  0
   25.6020   11.5630   19.0980 C   0  0  0  0  0  0  0  0  0  0  0  0
   24.6220   10.6770   18.7370 N   0  0  0  0  0  0  0  0  0  0  0  0
   26.6750   11.1910   19.7250 N   0  0  0  0  0  0  0  0  0  0  0  0
   27.6690   12.1580   20.1870 C   0  0  2  0  0  0  0  0  0  0  0  0
   28.9120   11.2920   20.4130 C   0  0  0  0  0  0  0  0  0  0  0  0
   27.2700   12.7990   21.5080 C   0  0  0  0  0  0  0  0  0  0  0  0
   26.0360   12.5280   22.0960 C   0  0  0  0  0  0  0  0  0  0  0  0
   25.6480   13.0950   23.2880 C   0  0  0  0  0  0  0  0  0  0  0  0
   24.3820   12.7370   23.7710 N   0  0  0  0  0  0  0  0  0  0  0  0
   23.1470   13.2260   23.3830 C   0  0  0  0  0  0  0  0  0  0  0  0
   22.9700   14.1680   22.6220 O   0  0  0  0  0  0  0  0  0  0  0  0
   21.9770   12.4960   23.9300 C   0  0  0  0  0  0  0  0  0  0  0  0
   22.0300   11.1220   24.0840 C   0  0  0  0  0  0  0  0  0  0  0  0
   20.9100   10.4920   24.5970 C   0  0  0  0  0  0  0  0  0  0  0  0
   19.7970   11.2370   24.9370 C   0  0  0  0  0  0  0  0  0  0  0  0
   18.6840   10.6690   25.4300 F   0  0  0  0  0  0  0  0  0  0  0  0
   19.8390   12.5990   24.7420 C   0  0  0  0  0  0  0  0  0  0  0  0
   20.9090   13.2380   24.2410 N   0  0  0  0  0  0  0  0  0  0  0  0
   26.5010   13.9550   23.9690 C   0  0  0  0  0  0  0  0  0  0  0  0
   27.7290   14.2380   23.3980 C   0  0  0  0  0  0  0  0  0  0  0  0
   28.0920   13.6870   22.1850 C   0  0  0  0  0  0  0  0  0  0  0  0
   29.2910   14.0030   21.6330 F   0  0  0  0  0  0  0  0  0  0  0  0
   28.0020   13.1310   19.0780 C   0  0  0  0  0  0  0  0  0  0  0  0
   26.5770   14.0950   18.6410 S   0  0  0  0  0  0  0  0  0  0  0  0
   26.7430   14.4720   17.2490 O   0  0  0  0  0  0  0  0  0  0  0  0
   26.2170   15.0070   19.6820 O   0  0  0  0  0  0  0  0  0  0  0  0
   23.3493   13.5637   18.8981 H   0  0  0  0  0  0  0  0  0  0  0  0
   24.2351   14.2139   17.4771 H   0  0  0  0  0  0  0  0  0  0  0  0
   23.6639   12.5109   17.4771 H   0  0  0  0  0  0  0  0  0  0  0  0
   24.7110    9.7250   18.9700 H   0  0  0  0  0  0  0  0  0  0  0  0
   23.8290   10.9930   18.2460 H   0  0  0  0  0  0  0  0  0  0  0  0
   29.0840   11.1722   21.4928 H   0  0  0  0  0  0  0  0  0  0  0  0
   28.7589   10.3040   19.9542 H   0  0  0  0  0  0  0  0  0  0  0  0
   29.7858   11.7779   19.9542 H   0  0  0  0  0  0  0  0  0  0  0  0
   25.3475   11.8360   21.5890 H   0  0  0  0  0  0  0  0  0  0  0  0
   24.3700   12.0500   24.4760 H   0  0  0  0  0  0  0  0  0  0  0  0
   22.9293   10.5516   23.8088 H   0  0  0  0  0  0  0  0  0  0  0  0
   20.9056    9.4006   24.7339 H   0  0  0  0  0  0  0  0  0  0  0  0
   18.9528   13.1932   25.0096 H   0  0  0  0  0  0  0  0  0  0  0  0
   26.2088   14.3973   24.9328 H   0  0  0  0  0  0  0  0  0  0  0  0
   28.4262   14.9116   23.9178 H   0  0  0  0  0  0  0  0  0  0  0  0
   28.8034   13.8041   19.4166 H   0  0  0  0  0  0  0  0  0  0  0  0
   28.3291   12.5626   18.1949 H   0  0  0  0  0  0  0  0  0  0  0  0
  1  2  1  0
  2  3  1  0
  3  4  1  0
  3  5  2  0
  5  6  1  0
  6  7  1  1
  6  8  1  0
  8  9  2  0
  9 10  1  0
 10 11  1  0
 11 12  1  0
 12 13  2  0
 12 14  1  0
 14 15  2  0
 15 16  1  0
 16 17  2  0
 17 18  1  0
 17 19  1  0
 19 20  2  0
 10 21  2  0
 21 22  1  0
 22 23  2  0
 23 24  1  0
  6 25  1  0
 25 26  1  0
 26 27  2  0
 26 28  2  0
 26  2  1  0
 23  8  1  0
 20 14  1  0
  1 29  1  0
  1 30  1  0
  1 31  1  0
  4 32  1  0
  4 33  1  0
  7 34  1  0
  7 35  1  0
  7 36  1  0
  9 37  1  0
 11 38  1  0
 15 39  1  0
 16 40  1  0
 19 41  1  0
 21 42  1  0
 22 43  1  0
 25 44  1  0
 25 45  1  0
M  END
>  <meeko>  (20) 
{"is_sidechain": false}

>  <source_group>  (20) 
BACE1-401 observed AD isoform

>  <source_system>  (20) 
BACE1_verubecestat_401

>  <source_run>  (20) 
alternate_401_seed3301_ex32

>  <source_seed>  (20) 
3301

>  <vina_pose_rank>  (20) 
20

>  <vina_affinity_kcal_mol>  (20) 
-7.9900000000000002

>  <vina_rmsd_to_crystal_angstrom>  (20) 
7.6614000000000004

$$$$
