BACE1_verubecestat_401__alternate_401_seed3301_ex32__pose01


 31 33  0  0  0  0  0  0  0  0999 V2000
   15.2890    4.6770   20.5210 C   0  0  0  0  0  0  0  0  0  0  0  0
   16.1770    4.4520   21.5720 C   0  0  0  0  0  0  0  0  0  0  0  0
   16.6370    5.4700   22.3770 C   0  0  0  0  0  0  0  0  0  0  0  0
   16.2410    6.7810   22.1480 C   0  0  0  0  0  0  0  0  0  0  0  0
   15.3570    7.0220   21.1110 C   0  0  0  0  0  0  0  0  0  0  0  0
   14.8790    5.9870   20.3320 C   0  0  0  0  0  0  0  0  0  0  0  0
   13.9900    6.2470   19.3380 F   0  0  0  0  0  0  0  0  0  0  0  0
   16.9470    4.7860   16.1170 C   0  0  0  0  0  0  0  0  0  0  0  0
   16.1910    4.2480   17.2650 N   0  0  0  0  0  0  0  0  0  0  0  0
   14.7900    4.3780   17.3930 C   0  0  0  0  0  0  0  0  0  0  0  0
   14.1780    4.9090   16.2900 N   0  0  0  0  0  0  0  0  0  0  0  0
   14.1240    4.0080   18.4430 N   0  0  0  0  0  0  0  0  0  0  0  0
   14.7970    3.5310   19.6510 C   0  0  0  0  0  0  0  0  0  0  0  0
   13.6820    2.7900   20.3940 C   0  0  0  0  0  0  0  0  0  0  0  0
   15.8470    2.5040   19.2880 C   0  0  0  0  0  0  0  0  0  0  0  0
   17.1250    3.2360   18.2980 S   0  0  0  0  0  0  0  0  0  0  0  0
   17.6730    2.1720   17.4760 O   0  0  0  0  0  0  0  0  0  0  0  0
   17.9160    4.1560   19.0540 O   0  0  0  0  0  0  0  0  0  0  0  0
   13.2020    5.0390   16.2830 H   0  0  0  0  0  0  0  0  0  0  0  0
   14.7140    5.1620   15.5030 H   0  0  0  0  0  0  0  0  0  0  0  0
   17.5270    5.1090   23.3970 N   0  0  0  0  0  0  0  0  0  0  0  0
   18.9070    5.2050   23.4040 C   0  0  0  0  0  0  0  0  0  0  0  0
   19.5960    5.5120   22.4400 O   0  0  0  0  0  0  0  0  0  0  0  0
   17.1180    4.7410   24.2140 H   0  0  0  0  0  0  0  0  0  0  0  0
   19.5540    4.9410   24.7120 C   0  0  0  0  0  0  0  0  0  0  0  0
   19.3450    5.8040   25.7730 C   0  0  0  0  0  0  0  0  0  0  0  0
   19.9750    5.5100   26.9700 C   0  0  0  0  0  0  0  0  0  0  0  0
   20.7730    4.3870   27.0700 C   0  0  0  0  0  0  0  0  0  0  0  0
   21.4110    4.0660   28.2080 F   0  0  0  0  0  0  0  0  0  0  0  0
   20.9240    3.5920   25.9560 C   0  0  0  0  0  0  0  0  0  0  0  0
   20.3300    3.8540   24.7800 N   0  0  0  0  0  0  0  0  0  0  0  0
  8  9  1  0
  9 10  1  0
 10 11  1  0
 10 12  2  0
 12 13  1  0
 13 14  1  0
 13  1  1  0
  1  2  2  0
  2  3  1  0
  3 21  1  0
 21 22  1  0
 22 23  2  0
 22 25  1  0
 25 26  2  0
 26 27  1  0
 27 28  2  0
 28 29  1  0
 28 30  1  0
 30 31  2  0
  3  4  2  0
  4  5  1  0
  5  6  2  0
  6  7  1  0
 13 15  1  0
 15 16  1  0
 16 17  2  0
 16 18  2  0
 16  9  1  0
  6  1  1  0
 31 25  1  0
 11 19  1  0
 11 20  1  0
 21 24  1  0
M  END
> <meeko>
{"is_sidechain": false}

> <source_group>
BACE1-401 observed AD isoform

> <source_system>
BACE1_verubecestat_401

> <source_run>
alternate_401_seed3301_ex32

> <source_seed>
3301

> <vina_pose_rank>
1

> <vina_affinity_kcal_mol>
-9.5419999999999998

> <vina_rmsd_to_crystal_angstrom>
10.841100000000001

> <minimizedAffinity>
-9.53829

> <CNNscore>
0.1319515556

> <CNNaffinity>
5.3885216713

> <CNN_VS>
0.7110238075

> <CNNaffinity_variance>
0.3994128704

$$$$
BACE1_verubecestat_401__alternate_401_seed3301_ex32__pose02


 31 33  0  0  0  0  0  0  0  0999 V2000
   18.7680   11.3070   25.6980 C   0  0  0  0  0  0  0  0  0  0  0  0
   18.4760   10.4270   24.6580 C   0  0  0  0  0  0  0  0  0  0  0  0
   17.3420   10.5480   23.8870 C   0  0  0  0  0  0  0  0  0  0  0  0
   16.4230   11.5590   24.1410 C   0  0  0  0  0  0  0  0  0  0  0  0
   16.6980   12.4440   25.1690 C   0  0  0  0  0  0  0  0  0  0  0  0
   17.8560   12.3290   25.9130 C   0  0  0  0  0  0  0  0  0  0  0  0
   18.1170   13.2290   26.8960 F   0  0  0  0  0  0  0  0  0  0  0  0
   22.7290   11.3230   23.1570 C   0  0  0  0  0  0  0  0  0  0  0  0
   21.9080   11.2770   24.3840 N   0  0  0  0  0  0  0  0  0  0  0  0
   21.6380   10.0800   25.0840 C   0  0  0  0  0  0  0  0  0  0  0  0
   22.3270    8.9940   24.6150 N   0  0  0  0  0  0  0  0  0  0  0  0
   20.8320   10.0040   26.0980 N   0  0  0  0  0  0  0  0  0  0  0  0
   20.0310   11.1480   26.5300 C   0  0  0  0  0  0  0  0  0  0  0  0
   19.6370   10.7700   27.9610 C   0  0  0  0  0  0  0  0  0  0  0  0
   20.8980   12.3850   26.6210 C   0  0  0  0  0  0  0  0  0  0  0  0
   21.5260   12.8290   25.0220 S   0  0  0  0  0  0  0  0  0  0  0  0
   22.7810   13.5230   25.2480 O   0  0  0  0  0  0  0  0  0  0  0  0
   20.4880   13.3060   24.1620 O   0  0  0  0  0  0  0  0  0  0  0  0
   22.2050    8.1140   25.0390 H   0  0  0  0  0  0  0  0  0  0  0  0
   22.9440    9.0930   23.8540 H   0  0  0  0  0  0  0  0  0  0  0  0
   17.1660    9.5960   22.8740 N   0  0  0  0  0  0  0  0  0  0  0  0
   16.4530    8.4110   22.9260 C   0  0  0  0  0  0  0  0  0  0  0  0
   15.9530    7.9340   23.9360 O   0  0  0  0  0  0  0  0  0  0  0  0
   17.6060    9.7960   22.0160 H   0  0  0  0  0  0  0  0  0  0  0  0
   16.2770    7.7210   21.6260 C   0  0  0  0  0  0  0  0  0  0  0  0
   15.0110    7.3520   21.2040 C   0  0  0  0  0  0  0  0  0  0  0  0
   14.9060    6.7080   19.9840 C   0  0  0  0  0  0  0  0  0  0  0  0
   16.0410    6.4610   19.2360 C   0  0  0  0  0  0  0  0  0  0  0  0
   15.9890    5.8320   18.0500 F   0  0  0  0  0  0  0  0  0  0  0  0
   17.2570    6.8610   19.7420 C   0  0  0  0  0  0  0  0  0  0  0  0
   17.3910    7.4820   20.9260 N   0  0  0  0  0  0  0  0  0  0  0  0
  8  9  1  0
  9 10  1  0
 10 11  1  0
 10 12  2  0
 12 13  1  0
 13 14  1  0
 13  1  1  0
  1  2  2  0
  2  3  1  0
  3 21  1  0
 21 22  1  0
 22 23  2  0
 22 25  1  0
 25 26  2  0
 26 27  1  0
 27 28  2  0
 28 29  1  0
 28 30  1  0
 30 31  2  0
  3  4  2  0
  4  5  1  0
  5  6  2  0
  6  7  1  0
 13 15  1  0
 15 16  1  0
 16 17  2  0
 16 18  2  0
 16  9  1  0
  6  1  1  0
 31 25  1  0
 11 19  1  0
 11 20  1  0
 21 24  1  0
M  END
> <meeko>
{"is_sidechain": false}

> <source_group>
BACE1-401 observed AD isoform

> <source_system>
BACE1_verubecestat_401

> <source_run>
alternate_401_seed3301_ex32

> <source_seed>
3301

> <vina_pose_rank>
2

> <vina_affinity_kcal_mol>
-9.3290000000000006

> <vina_rmsd_to_crystal_angstrom>
9.4657999999999998

> <minimizedAffinity>
-8.67412

> <CNNscore>
0.6265577078

> <CNNaffinity>
5.8753280640

> <CNN_VS>
3.6812319756

> <CNNaffinity_variance>
0.0803056136

$$$$
BACE1_verubecestat_401__alternate_401_seed3301_ex32__pose03


 31 33  0  0  0  0  0  0  0  0999 V2000
   16.5710    5.8520   21.1190 C   0  0  0  0  0  0  0  0  0  0  0  0
   17.4060    5.4820   22.1730 C   0  0  0  0  0  0  0  0  0  0  0  0
   18.7780    5.4990   22.0670 C   0  0  0  0  0  0  0  0  0  0  0  0
   19.3860    5.8730   20.8750 C   0  0  0  0  0  0  0  0  0  0  0  0
   18.5740    6.2470   19.8190 C   0  0  0  0  0  0  0  0  0  0  0  0
   17.1990    6.2550   19.9510 C   0  0  0  0  0  0  0  0  0  0  0  0
   16.4250    6.6550   18.9090 F   0  0  0  0  0  0  0  0  0  0  0  0
   14.4980    2.3040   18.8260 C   0  0  0  0  0  0  0  0  0  0  0  0
   14.5700    3.4940   19.6970 N   0  0  0  0  0  0  0  0  0  0  0  0
   14.2190    4.7900   19.2600 C   0  0  0  0  0  0  0  0  0  0  0  0
   13.6640    4.8230   18.0090 N   0  0  0  0  0  0  0  0  0  0  0  0
   14.3780    5.8610   19.9750 N   0  0  0  0  0  0  0  0  0  0  0  0
   15.0580    5.8260   21.2690 C   0  0  0  0  0  0  0  0  0  0  0  0
   14.6040    7.1300   21.9310 C   0  0  0  0  0  0  0  0  0  0  0  0
   14.5180    4.6900   22.1090 C   0  0  0  0  0  0  0  0  0  0  0  0
   14.8720    3.1250   21.3510 S   0  0  0  0  0  0  0  0  0  0  0  0
   13.8310    2.2100   21.7850 O   0  0  0  0  0  0  0  0  0  0  0  0
   16.2690    2.8260   21.3860 O   0  0  0  0  0  0  0  0  0  0  0  0
   13.3860    5.6830   17.6170 H   0  0  0  0  0  0  0  0  0  0  0  0
   13.5420    3.9880   17.5020 H   0  0  0  0  0  0  0  0  0  0  0  0
   19.5000    5.1010   23.1990 N   0  0  0  0  0  0  0  0  0  0  0  0
   19.3570    5.5380   24.5040 C   0  0  0  0  0  0  0  0  0  0  0  0
   18.6400    6.4620   24.8630 O   0  0  0  0  0  0  0  0  0  0  0  0
   20.1990    4.4240   23.0460 H   0  0  0  0  0  0  0  0  0  0  0  0
   20.1270    4.7730   25.5150 C   0  0  0  0  0  0  0  0  0  0  0  0
   20.1190    5.1760   26.8400 C   0  0  0  0  0  0  0  0  0  0  0  0
   20.8550    4.4260   27.7400 C   0  0  0  0  0  0  0  0  0  0  0  0
   21.5580    3.3210   27.3020 C   0  0  0  0  0  0  0  0  0  0  0  0
   22.2950    2.5690   28.1380 F   0  0  0  0  0  0  0  0  0  0  0  0
   21.5090    3.0030   25.9640 C   0  0  0  0  0  0  0  0  0  0  0  0
   20.8080    3.7140   25.0660 N   0  0  0  0  0  0  0  0  0  0  0  0
  8  9  1  0
  9 10  1  0
 10 11  1  0
 10 12  2  0
 12 13  1  0
 13 14  1  0
 13  1  1  0
  1  2  2  0
  2  3  1  0
  3 21  1  0
 21 22  1  0
 22 23  2  0
 22 25  1  0
 25 26  2  0
 26 27  1  0
 27 28  2  0
 28 29  1  0
 28 30  1  0
 30 31  2  0
  3  4  2  0
  4  5  1  0
  5  6  2  0
  6  7  1  0
 13 15  1  0
 15 16  1  0
 16 17  2  0
 16 18  2  0
 16  9  1  0
  6  1  1  0
 31 25  1  0
 11 19  1  0
 11 20  1  0
 21 24  1  0
M  END
> <meeko>
{"is_sidechain": false}

> <source_group>
BACE1-401 observed AD isoform

> <source_system>
BACE1_verubecestat_401

> <source_run>
alternate_401_seed3301_ex32

> <source_seed>
3301

> <vina_pose_rank>
3

> <vina_affinity_kcal_mol>
-9.1050000000000004

> <vina_rmsd_to_crystal_angstrom>
10.247999999999999

> <minimizedAffinity>
-9.25303

> <CNNscore>
0.1177414507

> <CNNaffinity>
5.3580989838

> <CNN_VS>
0.6308703423

> <CNNaffinity_variance>
0.3128165007

$$$$
BACE1_verubecestat_401__alternate_401_seed3301_ex32__pose04


 31 33  0  0  0  0  0  0  0  0999 V2000
   24.2630   11.8120   20.4250 C   0  0  0  0  0  0  0  0  0  0  0  0
   24.0650   12.2430   21.7350 C   0  0  0  0  0  0  0  0  0  0  0  0
   23.4530   11.4570   22.6850 C   0  0  0  0  0  0  0  0  0  0  0  0
   22.9860   10.1910   22.3550 C   0  0  0  0  0  0  0  0  0  0  0  0
   23.1770    9.7440   21.0590 C   0  0  0  0  0  0  0  0  0  0  0  0
   23.8210   10.5320   20.1250 C   0  0  0  0  0  0  0  0  0  0  0  0
   24.0220   10.0590   18.8690 F   0  0  0  0  0  0  0  0  0  0  0  0
   28.3990   13.5390   21.8590 C   0  0  0  0  0  0  0  0  0  0  0  0
   27.2830   13.3040   20.9230 N   0  0  0  0  0  0  0  0  0  0  0  0
   26.2770   14.2620   20.6670 C   0  0  0  0  0  0  0  0  0  0  0  0
   26.5110   15.4810   21.2460 N   0  0  0  0  0  0  0  0  0  0  0  0
   25.2320   14.0340   19.9330 N   0  0  0  0  0  0  0  0  0  0  0  0
   24.9450   12.7030   19.3990 C   0  0  0  0  0  0  0  0  0  0  0  0
   23.9590   12.9950   18.2640 C   0  0  0  0  0  0  0  0  0  0  0  0
   26.1880   12.1180   18.7660 C   0  0  0  0  0  0  0  0  0  0  0  0
   27.4540   11.8700   19.9850 S   0  0  0  0  0  0  0  0  0  0  0  0
   28.7240   11.9630   19.2870 O   0  0  0  0  0  0  0  0  0  0  0  0
   27.1120   10.8230   20.8950 O   0  0  0  0  0  0  0  0  0  0  0  0
   25.8660   16.2150   21.1250 H   0  0  0  0  0  0  0  0  0  0  0  0
   27.3240   15.6230   21.7830 H   0  0  0  0  0  0  0  0  0  0  0  0
   23.3140   12.0110   23.9640 N   0  0  0  0  0  0  0  0  0  0  0  0
   22.3600   12.9090   24.4090 C   0  0  0  0  0  0  0  0  0  0  0  0
   21.5390   13.4750   23.6990 O   0  0  0  0  0  0  0  0  0  0  0  0
   23.9790   11.7250   24.6310 H   0  0  0  0  0  0  0  0  0  0  0  0
   22.3480   13.1460   25.8730 C   0  0  0  0  0  0  0  0  0  0  0  0
   21.3150   12.6440   26.6460 C   0  0  0  0  0  0  0  0  0  0  0  0
   21.3540   12.8970   28.0060 C   0  0  0  0  0  0  0  0  0  0  0  0
   22.3990   13.6240   28.5420 C   0  0  0  0  0  0  0  0  0  0  0  0
   22.4740   13.9020   29.8540 F   0  0  0  0  0  0  0  0  0  0  0  0
   23.3770   14.0860   27.6900 C   0  0  0  0  0  0  0  0  0  0  0  0
   23.3640   13.8620   26.3660 N   0  0  0  0  0  0  0  0  0  0  0  0
  8  9  1  0
  9 10  1  0
 10 11  1  0
 10 12  2  0
 12 13  1  0
 13 14  1  0
 13  1  1  0
  1  2  2  0
  2  3  1  0
  3 21  1  0
 21 22  1  0
 22 23  2  0
 22 25  1  0
 25 26  2  0
 26 27  1  0
 27 28  2  0
 28 29  1  0
 28 30  1  0
 30 31  2  0
  3  4  2  0
  4  5  1  0
  5  6  2  0
  6  7  1  0
 13 15  1  0
 15 16  1  0
 16 17  2  0
 16 18  2  0
 16  9  1  0
  6  1  1  0
 31 25  1  0
 11 19  1  0
 11 20  1  0
 21 24  1  0
M  END
> <meeko>
{"is_sidechain": false}

> <source_group>
BACE1-401 observed AD isoform

> <source_system>
BACE1_verubecestat_401

> <source_run>
alternate_401_seed3301_ex32

> <source_seed>
3301

> <vina_pose_rank>
4

> <vina_affinity_kcal_mol>
-9.0210000000000008

> <vina_rmsd_to_crystal_angstrom>
7.1582999999999997

> <minimizedAffinity>
-8.42432

> <CNNscore>
0.5912533998

> <CNNaffinity>
5.6130204201

> <CNN_VS>
3.3187174797

> <CNNaffinity_variance>
0.1223193631

$$$$
BACE1_verubecestat_401__alternate_401_seed3301_ex32__pose05


 31 33  0  0  0  0  0  0  0  0999 V2000
   16.5720    7.6370   21.5040 C   0  0  0  0  0  0  0  0  0  0  0  0
   17.4200    8.5110   22.1810 C   0  0  0  0  0  0  0  0  0  0  0  0
   16.9510    9.6010   22.8780 C   0  0  0  0  0  0  0  0  0  0  0  0
   15.5910    9.8820   22.9110 C   0  0  0  0  0  0  0  0  0  0  0  0
   14.7330    9.0230   22.2470 C   0  0  0  0  0  0  0  0  0  0  0  0
   15.2150    7.9160   21.5780 C   0  0  0  0  0  0  0  0  0  0  0  0
   14.3500    7.0720   20.9600 F   0  0  0  0  0  0  0  0  0  0  0  0
   19.3150    4.8350   24.1070 C   0  0  0  0  0  0  0  0  0  0  0  0
   18.5860    5.2730   22.9000 N   0  0  0  0  0  0  0  0  0  0  0  0
   19.2190    5.8990   21.8030 C   0  0  0  0  0  0  0  0  0  0  0  0
   20.5850    5.9250   21.8910 N   0  0  0  0  0  0  0  0  0  0  0  0
   18.5820    6.3870   20.7840 N   0  0  0  0  0  0  0  0  0  0  0  0
   17.1210    6.4390   20.7450 C   0  0  0  0  0  0  0  0  0  0  0  0
   16.8240    6.6200   19.2540 C   0  0  0  0  0  0  0  0  0  0  0  0
   16.5430    5.1020   21.1530 C   0  0  0  0  0  0  0  0  0  0  0  0
   16.9540    4.7290   22.8390 S   0  0  0  0  0  0  0  0  0  0  0  0
   16.9790    3.2820   22.9490 O   0  0  0  0  0  0  0  0  0  0  0  0
   16.2720    5.5930   23.7510 O   0  0  0  0  0  0  0  0  0  0  0  0
   21.1170    6.3400   21.1730 H   0  0  0  0  0  0  0  0  0  0  0  0
   21.0360    5.5280   22.6710 H   0  0  0  0  0  0  0  0  0  0  0  0
   17.9100   10.4010   23.5130 N   0  0  0  0  0  0  0  0  0  0  0  0
   17.8320   11.0140   24.7500 C   0  0  0  0  0  0  0  0  0  0  0  0
   16.8300   11.0590   25.4520 O   0  0  0  0  0  0  0  0  0  0  0  0
   18.7470   10.5450   23.0140 H   0  0  0  0  0  0  0  0  0  0  0  0
   19.0940   11.6210   25.2380 C   0  0  0  0  0  0  0  0  0  0  0  0
   19.7580   12.5530   24.4600 C   0  0  0  0  0  0  0  0  0  0  0  0
   20.9330   13.0850   24.9630 C   0  0  0  0  0  0  0  0  0  0  0  0
   21.3970   12.6820   26.2000 C   0  0  0  0  0  0  0  0  0  0  0  0
   22.5360   13.1630   26.7240 F   0  0  0  0  0  0  0  0  0  0  0  0
   20.6690   11.7430   26.8960 C   0  0  0  0  0  0  0  0  0  0  0  0
   19.5290   11.2050   26.4320 N   0  0  0  0  0  0  0  0  0  0  0  0
  8  9  1  0
  9 10  1  0
 10 11  1  0
 10 12  2  0
 12 13  1  0
 13 14  1  0
 13  1  1  0
  1  2  2  0
  2  3  1  0
  3 21  1  0
 21 22  1  0
 22 23  2  0
 22 25  1  0
 25 26  2  0
 26 27  1  0
 27 28  2  0
 28 29  1  0
 28 30  1  0
 30 31  2  0
  3  4  2  0
  4  5  1  0
  5  6  2  0
  6  7  1  0
 13 15  1  0
 15 16  1  0
 16 17  2  0
 16 18  2  0
 16  9  1  0
  6  1  1  0
 31 25  1  0
 11 19  1  0
 11 20  1  0
 21 24  1  0
M  END
> <meeko>
{"is_sidechain": false}

> <source_group>
BACE1-401 observed AD isoform

> <source_system>
BACE1_verubecestat_401

> <source_run>
alternate_401_seed3301_ex32

> <source_seed>
3301

> <vina_pose_rank>
5

> <vina_affinity_kcal_mol>
-8.6910000000000007

> <vina_rmsd_to_crystal_angstrom>
8.8867999999999991

> <minimizedAffinity>
-8.25344

> <CNNscore>
0.1338234097

> <CNNaffinity>
4.8999028206

> <CNN_VS>
0.6557217240

> <CNNaffinity_variance>
1.1814112663

$$$$
BACE1_verubecestat_401__alternate_401_seed3301_ex32__pose06


 31 33  0  0  0  0  0  0  0  0999 V2000
   17.7680   10.1070   24.2670 C   0  0  0  0  0  0  0  0  0  0  0  0
   18.3590    9.0720   24.9910 C   0  0  0  0  0  0  0  0  0  0  0  0
   18.5620    7.8210   24.4550 C   0  0  0  0  0  0  0  0  0  0  0  0
   18.1550    7.5380   23.1570 C   0  0  0  0  0  0  0  0  0  0  0  0
   17.5690    8.5540   22.4230 C   0  0  0  0  0  0  0  0  0  0  0  0
   17.4020    9.8130   22.9630 C   0  0  0  0  0  0  0  0  0  0  0  0
   16.8510   10.8010   22.2110 F   0  0  0  0  0  0  0  0  0  0  0  0
   21.3830   11.5650   26.9060 C   0  0  0  0  0  0  0  0  0  0  0  0
   20.0670   11.6580   26.2430 N   0  0  0  0  0  0  0  0  0  0  0  0
   18.8450   11.4790   26.9280 C   0  0  0  0  0  0  0  0  0  0  0  0
   18.9810   11.3620   28.2850 N   0  0  0  0  0  0  0  0  0  0  0  0
   17.6870   11.4500   26.3430 N   0  0  0  0  0  0  0  0  0  0  0  0
   17.5610   11.4800   24.8870 C   0  0  0  0  0  0  0  0  0  0  0  0
   16.1040   11.9030   24.6780 C   0  0  0  0  0  0  0  0  0  0  0  0
   18.4280   12.5790   24.3140 C   0  0  0  0  0  0  0  0  0  0  0  0
   20.1440   12.2530   24.6290 S   0  0  0  0  0  0  0  0  0  0  0  0
   20.8090   13.5430   24.6780 O   0  0  0  0  0  0  0  0  0  0  0  0
   20.6160   11.1340   23.8740 O   0  0  0  0  0  0  0  0  0  0  0  0
   18.1850   11.2330   28.8500 H   0  0  0  0  0  0  0  0  0  0  0  0
   19.8750   11.4060   28.6960 H   0  0  0  0  0  0  0  0  0  0  0  0
   19.1640    6.8700   25.2890 N   0  0  0  0  0  0  0  0  0  0  0  0
   19.4100    5.5340   25.0280 C   0  0  0  0  0  0  0  0  0  0  0  0
   19.0140    4.9240   24.0440 O   0  0  0  0  0  0  0  0  0  0  0  0
   19.4480    7.1950   26.1740 H   0  0  0  0  0  0  0  0  0  0  0  0
   20.2540    4.8380   26.0300 C   0  0  0  0  0  0  0  0  0  0  0  0
   20.1280    5.1470   27.3730 C   0  0  0  0  0  0  0  0  0  0  0  0
   20.9410    4.4690   28.2640 C   0  0  0  0  0  0  0  0  0  0  0  0
   21.8330    3.5220   27.7980 C   0  0  0  0  0  0  0  0  0  0  0  0
   22.6490    2.8460   28.6240 F   0  0  0  0  0  0  0  0  0  0  0  0
   21.8900    3.2900   26.4430 C   0  0  0  0  0  0  0  0  0  0  0  0
   21.1180    3.9360   25.5530 N   0  0  0  0  0  0  0  0  0  0  0  0
  8  9  1  0
  9 10  1  0
 10 11  1  0
 10 12  2  0
 12 13  1  0
 13 14  1  0
 13  1  1  0
  1  2  2  0
  2  3  1  0
  3 21  1  0
 21 22  1  0
 22 23  2  0
 22 25  1  0
 25 26  2  0
 26 27  1  0
 27 28  2  0
 28 29  1  0
 28 30  1  0
 30 31  2  0
  3  4  2  0
  4  5  1  0
  5  6  2  0
  6  7  1  0
 13 15  1  0
 15 16  1  0
 16 17  2  0
 16 18  2  0
 16  9  1  0
  6  1  1  0
 31 25  1  0
 11 19  1  0
 11 20  1  0
 21 24  1  0
M  END
> <meeko>
{"is_sidechain": false}

> <source_group>
BACE1-401 observed AD isoform

> <source_system>
BACE1_verubecestat_401

> <source_run>
alternate_401_seed3301_ex32

> <source_seed>
3301

> <vina_pose_rank>
6

> <vina_affinity_kcal_mol>
-8.4130000000000003

> <vina_rmsd_to_crystal_angstrom>
8.0329999999999995

> <minimizedAffinity>
-8.40580

> <CNNscore>
0.1659922600

> <CNNaffinity>
5.0431594849

> <CNN_VS>
0.8371254206

> <CNNaffinity_variance>
0.7419247627

$$$$
BACE1_verubecestat_401__alternate_401_seed3301_ex32__pose07


 31 33  0  0  0  0  0  0  0  0999 V2000
   24.2020   11.4320   20.6500 C   0  0  0  0  0  0  0  0  0  0  0  0
   23.4870   11.4090   21.8460 C   0  0  0  0  0  0  0  0  0  0  0  0
   23.1000   10.2340   22.4500 C   0  0  0  0  0  0  0  0  0  0  0  0
   23.3950    9.0110   21.8620 C   0  0  0  0  0  0  0  0  0  0  0  0
   24.1070    9.0140   20.6760 C   0  0  0  0  0  0  0  0  0  0  0  0
   24.5180   10.2000   20.0990 C   0  0  0  0  0  0  0  0  0  0  0  0
   25.2410   10.1750   18.9490 F   0  0  0  0  0  0  0  0  0  0  0  0
   27.3290   13.8720   23.1840 C   0  0  0  0  0  0  0  0  0  0  0  0
   26.4540   13.5810   22.0310 N   0  0  0  0  0  0  0  0  0  0  0  0
   25.2040   14.2090   21.8350 C   0  0  0  0  0  0  0  0  0  0  0  0
   24.9450   15.2190   22.7220 N   0  0  0  0  0  0  0  0  0  0  0  0
   24.3750   13.8880   20.8900 N   0  0  0  0  0  0  0  0  0  0  0  0
   24.6190   12.7470   20.0090 C   0  0  0  0  0  0  0  0  0  0  0  0
   23.6990   13.0300   18.8190 C   0  0  0  0  0  0  0  0  0  0  0  0
   26.0390   12.7860   19.4910 C   0  0  0  0  0  0  0  0  0  0  0  0
   27.1980   12.6050   20.8240 S   0  0  0  0  0  0  0  0  0  0  0  0
   28.4130   13.2850   20.4110 O   0  0  0  0  0  0  0  0  0  0  0  0
   27.1630   11.2880   21.3780 O   0  0  0  0  0  0  0  0  0  0  0  0
   24.0980   15.7180   22.6660 H   0  0  0  0  0  0  0  0  0  0  0  0
   25.6060   15.4470   23.4160 H   0  0  0  0  0  0  0  0  0  0  0  0
   22.3840   10.3510   23.6490 N   0  0  0  0  0  0  0  0  0  0  0  0
   22.6410   11.1830   24.7230 C   0  0  0  0  0  0  0  0  0  0  0  0
   23.6400   11.8790   24.8510 O   0  0  0  0  0  0  0  0  0  0  0  0
   21.5970    9.7660   23.7370 H   0  0  0  0  0  0  0  0  0  0  0  0
   21.5800   11.2280   25.7580 C   0  0  0  0  0  0  0  0  0  0  0  0
   20.2700   10.9400   25.4170 C   0  0  0  0  0  0  0  0  0  0  0  0
   19.3200   10.9990   26.4220 C   0  0  0  0  0  0  0  0  0  0  0  0
   19.6990   11.3320   27.7080 C   0  0  0  0  0  0  0  0  0  0  0  0
   18.8110   11.4110   28.7140 F   0  0  0  0  0  0  0  0  0  0  0  0
   21.0260   11.6070   27.9480 C   0  0  0  0  0  0  0  0  0  0  0  0
   21.9690   11.5640   26.9920 N   0  0  0  0  0  0  0  0  0  0  0  0
  8  9  1  0
  9 10  1  0
 10 11  1  0
 10 12  2  0
 12 13  1  0
 13 14  1  0
 13  1  1  0
  1  2  2  0
  2  3  1  0
  3 21  1  0
 21 22  1  0
 22 23  2  0
 22 25  1  0
 25 26  2  0
 26 27  1  0
 27 28  2  0
 28 29  1  0
 28 30  1  0
 30 31  2  0
  3  4  2  0
  4  5  1  0
  5  6  2  0
  6  7  1  0
 13 15  1  0
 15 16  1  0
 16 17  2  0
 16 18  2  0
 16  9  1  0
  6  1  1  0
 31 25  1  0
 11 19  1  0
 11 20  1  0
 21 24  1  0
M  END
> <meeko>
{"is_sidechain": false}

> <source_group>
BACE1-401 observed AD isoform

> <source_system>
BACE1_verubecestat_401

> <source_run>
alternate_401_seed3301_ex32

> <source_seed>
3301

> <vina_pose_rank>
7

> <vina_affinity_kcal_mol>
-8.3699999999999992

> <vina_rmsd_to_crystal_angstrom>
7.1443000000000003

> <minimizedAffinity>
-7.98366

> <CNNscore>
0.1418012977

> <CNNaffinity>
5.0038456917

> <CNN_VS>
0.7095518112

> <CNNaffinity_variance>
0.4435315430

$$$$
BACE1_verubecestat_401__alternate_401_seed3301_ex32__pose08


 31 33  0  0  0  0  0  0  0  0999 V2000
   19.5270   11.1330   25.0180 C   0  0  0  0  0  0  0  0  0  0  0  0
   19.9760    9.8150   25.0820 C   0  0  0  0  0  0  0  0  0  0  0  0
   19.1930    8.7510   24.6950 C   0  0  0  0  0  0  0  0  0  0  0  0
   17.8970    8.9600   24.2410 C   0  0  0  0  0  0  0  0  0  0  0  0
   17.4350   10.2620   24.1680 C   0  0  0  0  0  0  0  0  0  0  0  0
   18.2430   11.3220   24.5290 C   0  0  0  0  0  0  0  0  0  0  0  0
   17.7760   12.5930   24.4210 F   0  0  0  0  0  0  0  0  0  0  0  0
   19.0770   12.2830   29.5600 C   0  0  0  0  0  0  0  0  0  0  0  0
   19.6280   12.3610   28.1930 N   0  0  0  0  0  0  0  0  0  0  0  0
   19.2580   13.3650   27.2700 C   0  0  0  0  0  0  0  0  0  0  0  0
   18.4620   14.3440   27.8020 N   0  0  0  0  0  0  0  0  0  0  0  0
   19.6470   13.3860   26.0320 N   0  0  0  0  0  0  0  0  0  0  0  0
   20.4170   12.2880   25.4500 C   0  0  0  0  0  0  0  0  0  0  0  0
   21.0380   12.9270   24.2050 C   0  0  0  0  0  0  0  0  0  0  0  0
   21.5580   11.9090   26.3690 C   0  0  0  0  0  0  0  0  0  0  0  0
   20.9400   11.2830   27.9100 S   0  0  0  0  0  0  0  0  0  0  0  0
   21.9530   11.5690   28.9100 O   0  0  0  0  0  0  0  0  0  0  0  0
   20.3080   10.0110   27.7480 O   0  0  0  0  0  0  0  0  0  0  0  0
   18.1520   15.0880   27.2370 H   0  0  0  0  0  0  0  0  0  0  0  0
   18.2010   14.3040   28.7510 H   0  0  0  0  0  0  0  0  0  0  0  0
   19.7640    7.4770   24.8110 N   0  0  0  0  0  0  0  0  0  0  0  0
   20.6400    6.8480   23.9440 C   0  0  0  0  0  0  0  0  0  0  0  0
   20.9650    7.2700   22.8420 O   0  0  0  0  0  0  0  0  0  0  0  0
   19.5090    6.9640   25.6120 H   0  0  0  0  0  0  0  0  0  0  0  0
   21.2330    5.5860   24.4490 C   0  0  0  0  0  0  0  0  0  0  0  0
   20.5470    4.8230   25.3780 C   0  0  0  0  0  0  0  0  0  0  0  0
   21.1480    3.6560   25.8160 C   0  0  0  0  0  0  0  0  0  0  0  0
   22.3850    3.2910   25.3210 C   0  0  0  0  0  0  0  0  0  0  0  0
   23.0100    2.1720   25.7230 F   0  0  0  0  0  0  0  0  0  0  0  0
   22.9910    4.1180   24.4030 C   0  0  0  0  0  0  0  0  0  0  0  0
   22.4360    5.2600   23.9640 N   0  0  0  0  0  0  0  0  0  0  0  0
  8  9  1  0
  9 10  1  0
 10 11  1  0
 10 12  2  0
 12 13  1  0
 13 14  1  0
 13  1  1  0
  1  2  2  0
  2  3  1  0
  3 21  1  0
 21 22  1  0
 22 23  2  0
 22 25  1  0
 25 26  2  0
 26 27  1  0
 27 28  2  0
 28 29  1  0
 28 30  1  0
 30 31  2  0
  3  4  2  0
  4  5  1  0
  5  6  2  0
  6  7  1  0
 13 15  1  0
 15 16  1  0
 16 17  2  0
 16 18  2  0
 16  9  1  0
  6  1  1  0
 31 25  1  0
 11 19  1  0
 11 20  1  0
 21 24  1  0
M  END
> <meeko>
{"is_sidechain": false}

> <source_group>
BACE1-401 observed AD isoform

> <source_system>
BACE1_verubecestat_401

> <source_run>
alternate_401_seed3301_ex32

> <source_seed>
3301

> <vina_pose_rank>
8

> <vina_affinity_kcal_mol>
-8.3520000000000003

> <vina_rmsd_to_crystal_angstrom>
7.6387

> <minimizedAffinity>
-8.37545

> <CNNscore>
0.0483280905

> <CNNaffinity>
4.1159873009

> <CNN_VS>
0.1989178061

> <CNNaffinity_variance>
1.0675536394

$$$$
BACE1_verubecestat_401__alternate_401_seed3301_ex32__pose09


 31 33  0  0  0  0  0  0  0  0999 V2000
   18.0110    7.1550   22.8460 C   0  0  0  0  0  0  0  0  0  0  0  0
   19.1630    6.4630   22.4750 C   0  0  0  0  0  0  0  0  0  0  0  0
   20.0330    5.9320   23.4010 C   0  0  0  0  0  0  0  0  0  0  0  0
   19.7970    6.0920   24.7600 C   0  0  0  0  0  0  0  0  0  0  0  0
   18.6560    6.7730   25.1470 C   0  0  0  0  0  0  0  0  0  0  0  0
   17.7760    7.2720   24.2070 C   0  0  0  0  0  0  0  0  0  0  0  0
   16.6480    7.9110   24.6130 F   0  0  0  0  0  0  0  0  0  0  0  0
   16.5350    3.9920   19.6880 C   0  0  0  0  0  0  0  0  0  0  0  0
   16.6210    5.3130   20.3420 N   0  0  0  0  0  0  0  0  0  0  0  0
   17.3860    6.3810   19.8240 C   0  0  0  0  0  0  0  0  0  0  0  0
   17.9180    6.1340   18.5870 N   0  0  0  0  0  0  0  0  0  0  0  0
   17.5600    7.5100   20.4400 N   0  0  0  0  0  0  0  0  0  0  0  0
   17.0670    7.7270   21.7990 C   0  0  0  0  0  0  0  0  0  0  0  0
   17.0600    9.2530   21.9220 C   0  0  0  0  0  0  0  0  0  0  0  0
   15.6310    7.2660   21.9110 C   0  0  0  0  0  0  0  0  0  0  0  0
   15.5110    5.5160   21.6430 S   0  0  0  0  0  0  0  0  0  0  0  0
   14.1810    5.2680   21.1160 O   0  0  0  0  0  0  0  0  0  0  0  0
   16.1020    4.7760   22.7150 O   0  0  0  0  0  0  0  0  0  0  0  0
   18.4680    6.8190   18.1420 H   0  0  0  0  0  0  0  0  0  0  0  0
   17.7500    5.2720   18.1420 H   0  0  0  0  0  0  0  0  0  0  0  0
   21.1550    5.2620   22.8960 N   0  0  0  0  0  0  0  0  0  0  0  0
   22.3930    5.7880   22.5730 C   0  0  0  0  0  0  0  0  0  0  0  0
   22.6700    6.9800   22.5580 O   0  0  0  0  0  0  0  0  0  0  0  0
   21.0480    4.2940   22.7530 H   0  0  0  0  0  0  0  0  0  0  0  0
   23.4440    4.7880   22.2610 C   0  0  0  0  0  0  0  0  0  0  0  0
   23.5530    3.6390   23.0250 C   0  0  0  0  0  0  0  0  0  0  0  0
   24.5520    2.7420   22.6910 C   0  0  0  0  0  0  0  0  0  0  0  0
   25.3900    3.0100   21.6260 C   0  0  0  0  0  0  0  0  0  0  0  0
   26.3800    2.1730   21.2710 F   0  0  0  0  0  0  0  0  0  0  0  0
   25.2060    4.1830   20.9300 C   0  0  0  0  0  0  0  0  0  0  0  0
   24.2500    5.0760   21.2340 N   0  0  0  0  0  0  0  0  0  0  0  0
  8  9  1  0
  9 10  1  0
 10 11  1  0
 10 12  2  0
 12 13  1  0
 13 14  1  0
 13  1  1  0
  1  2  2  0
  2  3  1  0
  3 21  1  0
 21 22  1  0
 22 23  2  0
 22 25  1  0
 25 26  2  0
 26 27  1  0
 27 28  2  0
 28 29  1  0
 28 30  1  0
 30 31  2  0
  3  4  2  0
  4  5  1  0
  5  6  2  0
  6  7  1  0
 13 15  1  0
 15 16  1  0
 16 17  2  0
 16 18  2  0
 16  9  1  0
  6  1  1  0
 31 25  1  0
 11 19  1  0
 11 20  1  0
 21 24  1  0
M  END
> <meeko>
{"is_sidechain": false}

> <source_group>
BACE1-401 observed AD isoform

> <source_system>
BACE1_verubecestat_401

> <source_run>
alternate_401_seed3301_ex32

> <source_seed>
3301

> <vina_pose_rank>
9

> <vina_affinity_kcal_mol>
-8.3520000000000003

> <vina_rmsd_to_crystal_angstrom>
7.9946999999999999

> <minimizedAffinity>
-7.68786

> <CNNscore>
0.0936987251

> <CNNaffinity>
4.5555877686

> <CNN_VS>
0.4268527627

> <CNNaffinity_variance>
0.7871621251

$$$$
BACE1_verubecestat_401__alternate_401_seed3301_ex32__pose10


 31 33  0  0  0  0  0  0  0  0999 V2000
   24.7730   11.2070   19.7340 C   0  0  0  0  0  0  0  0  0  0  0  0
   24.0550   10.5600   20.7400 C   0  0  0  0  0  0  0  0  0  0  0  0
   24.1810    9.2120   20.9830 C   0  0  0  0  0  0  0  0  0  0  0  0
   25.0260    8.4320   20.2040 C   0  0  0  0  0  0  0  0  0  0  0  0
   25.7490    9.0570   19.2030 C   0  0  0  0  0  0  0  0  0  0  0  0
   25.6370   10.4170   18.9910 C   0  0  0  0  0  0  0  0  0  0  0  0
   26.3790   11.0110   18.0220 F   0  0  0  0  0  0  0  0  0  0  0  0
   25.8100   13.8590   23.4800 C   0  0  0  0  0  0  0  0  0  0  0  0
   25.4130   13.5840   22.0860 N   0  0  0  0  0  0  0  0  0  0  0  0
   24.0750   13.6580   21.6370 C   0  0  0  0  0  0  0  0  0  0  0  0
   23.2030   14.1540   22.5690 N   0  0  0  0  0  0  0  0  0  0  0  0
   23.6940   13.3160   20.4450 N   0  0  0  0  0  0  0  0  0  0  0  0
   24.6140   12.7000   19.4910 C   0  0  0  0  0  0  0  0  0  0  0  0
   23.9090   12.9100   18.1490 C   0  0  0  0  0  0  0  0  0  0  0  0
   25.9080   13.4810   19.4400 C   0  0  0  0  0  0  0  0  0  0  0  0
   26.7430   13.4160   21.0050 S   0  0  0  0  0  0  0  0  0  0  0  0
   27.5320   14.6310   21.1040 O   0  0  0  0  0  0  0  0  0  0  0  0
   27.2450   12.1070   21.2820 O   0  0  0  0  0  0  0  0  0  0  0  0
   22.2480   14.2440   22.3500 H   0  0  0  0  0  0  0  0  0  0  0  0
   23.5320   14.4210   23.4580 H   0  0  0  0  0  0  0  0  0  0  0  0
   23.4010    8.6860   22.0220 N   0  0  0  0  0  0  0  0  0  0  0  0
   22.6500    9.3710   22.9600 C   0  0  0  0  0  0  0  0  0  0  0  0
   22.6500   10.5850   23.1130 O   0  0  0  0  0  0  0  0  0  0  0  0
   23.3860    7.7040   22.0920 H   0  0  0  0  0  0  0  0  0  0  0  0
   21.7650    8.5280   23.8000 C   0  0  0  0  0  0  0  0  0  0  0  0
   20.8690    9.1210   24.6720 C   0  0  0  0  0  0  0  0  0  0  0  0
   20.0690    8.2870   25.4330 C   0  0  0  0  0  0  0  0  0  0  0  0
   20.1830    6.9170   25.3010 C   0  0  0  0  0  0  0  0  0  0  0  0
   19.4350    6.0670   26.0260 F   0  0  0  0  0  0  0  0  0  0  0  0
   21.1080    6.4200   24.4110 C   0  0  0  0  0  0  0  0  0  0  0  0
   21.9020    7.2050   23.6640 N   0  0  0  0  0  0  0  0  0  0  0  0
  8  9  1  0
  9 10  1  0
 10 11  1  0
 10 12  2  0
 12 13  1  0
 13 14  1  0
 13  1  1  0
  1  2  2  0
  2  3  1  0
  3 21  1  0
 21 22  1  0
 22 23  2  0
 22 25  1  0
 25 26  2  0
 26 27  1  0
 27 28  2  0
 28 29  1  0
 28 30  1  0
 30 31  2  0
  3  4  2  0
  4  5  1  0
  5  6  2  0
  6  7  1  0
 13 15  1  0
 15 16  1  0
 16 17  2  0
 16 18  2  0
 16  9  1  0
  6  1  1  0
 31 25  1  0
 11 19  1  0
 11 20  1  0
 21 24  1  0
M  END
> <meeko>
{"is_sidechain": false}

> <source_group>
BACE1-401 observed AD isoform

> <source_system>
BACE1_verubecestat_401

> <source_run>
alternate_401_seed3301_ex32

> <source_seed>
3301

> <vina_pose_rank>
10

> <vina_affinity_kcal_mol>
-8.3030000000000008

> <vina_rmsd_to_crystal_angstrom>
6.4710999999999999

> <minimizedAffinity>
-8.09652

> <CNNscore>
0.2216838151

> <CNNaffinity>
5.2978100777

> <CNN_VS>
1.1744387150

> <CNNaffinity_variance>
0.1976620704

$$$$
BACE1_verubecestat_401__alternate_401_seed3301_ex32__pose11


 31 33  0  0  0  0  0  0  0  0999 V2000
   18.4870    7.7910   23.1000 C   0  0  0  0  0  0  0  0  0  0  0  0
   19.3960    8.7730   23.4900 C   0  0  0  0  0  0  0  0  0  0  0  0
   19.0250    9.8610   24.2470 C   0  0  0  0  0  0  0  0  0  0  0  0
   17.7020   10.0290   24.6360 C   0  0  0  0  0  0  0  0  0  0  0  0
   16.7860    9.0620   24.2610 C   0  0  0  0  0  0  0  0  0  0  0  0
   17.1790    7.9590   23.5280 C   0  0  0  0  0  0  0  0  0  0  0  0
   16.2670    7.0100   23.1980 F   0  0  0  0  0  0  0  0  0  0  0  0
   22.2320    5.5350   24.8420 C   0  0  0  0  0  0  0  0  0  0  0  0
   21.1190    5.7870   23.9050 N   0  0  0  0  0  0  0  0  0  0  0  0
   21.3010    6.3820   22.6370 C   0  0  0  0  0  0  0  0  0  0  0  0
   22.6130    6.5630   22.2910 N   0  0  0  0  0  0  0  0  0  0  0  0
   20.3250    6.7090   21.8470 N   0  0  0  0  0  0  0  0  0  0  0  0
   18.9290    6.5990   22.2650 C   0  0  0  0  0  0  0  0  0  0  0  0
   18.1700    6.6190   20.9350 C   0  0  0  0  0  0  0  0  0  0  0  0
   18.6810    5.2470   22.8970 C   0  0  0  0  0  0  0  0  0  0  0  0
   19.6310    5.0670   24.3850 S   0  0  0  0  0  0  0  0  0  0  0  0
   19.8750    3.6450   24.5500 O   0  0  0  0  0  0  0  0  0  0  0  0
   19.1540    5.9260   25.4230 O   0  0  0  0  0  0  0  0  0  0  0  0
   22.8420    6.9700   21.4240 H   0  0  0  0  0  0  0  0  0  0  0  0
   23.3280    6.2850   22.9090 H   0  0  0  0  0  0  0  0  0  0  0  0
   20.0360   10.7760   24.5690 N   0  0  0  0  0  0  0  0  0  0  0  0
   20.7820   10.8560   25.7310 C   0  0  0  0  0  0  0  0  0  0  0  0
   20.5810   10.1980   26.7430 O   0  0  0  0  0  0  0  0  0  0  0  0
   20.2420   11.4480   23.8790 H   0  0  0  0  0  0  0  0  0  0  0  0
   21.9230   11.8020   25.6870 C   0  0  0  0  0  0  0  0  0  0  0  0
   22.7840   11.7960   24.6040 C   0  0  0  0  0  0  0  0  0  0  0  0
   23.8340   12.6990   24.6160 C   0  0  0  0  0  0  0  0  0  0  0  0
   23.9850   13.5630   25.6840 C   0  0  0  0  0  0  0  0  0  0  0  0
   24.9940   14.4490   25.7440 F   0  0  0  0  0  0  0  0  0  0  0  0
   23.0800   13.4890   26.7180 C   0  0  0  0  0  0  0  0  0  0  0  0
   22.0560   12.6200   26.7370 N   0  0  0  0  0  0  0  0  0  0  0  0
  8  9  1  0
  9 10  1  0
 10 11  1  0
 10 12  2  0
 12 13  1  0
 13 14  1  0
 13  1  1  0
  1  2  2  0
  2  3  1  0
  3 21  1  0
 21 22  1  0
 22 23  2  0
 22 25  1  0
 25 26  2  0
 26 27  1  0
 27 28  2  0
 28 29  1  0
 28 30  1  0
 30 31  2  0
  3  4  2  0
  4  5  1  0
  5  6  2  0
  6  7  1  0
 13 15  1  0
 15 16  1  0
 16 17  2  0
 16 18  2  0
 16  9  1  0
  6  1  1  0
 31 25  1  0
 11 19  1  0
 11 20  1  0
 21 24  1  0
M  END
> <meeko>
{"is_sidechain": false}

> <source_group>
BACE1-401 observed AD isoform

> <source_system>
BACE1_verubecestat_401

> <source_run>
alternate_401_seed3301_ex32

> <source_seed>
3301

> <vina_pose_rank>
11

> <vina_affinity_kcal_mol>
-8.2520000000000007

> <vina_rmsd_to_crystal_angstrom>
7.3712

> <minimizedAffinity>
-7.58994

> <CNNscore>
0.0255247056

> <CNNaffinity>
4.4705758095

> <CNN_VS>
0.1141101345

> <CNNaffinity_variance>
0.5023905635

$$$$
BACE1_verubecestat_401__alternate_401_seed3301_ex32__pose12


 31 33  0  0  0  0  0  0  0  0999 V2000
   19.6870   11.1040   25.2080 C   0  0  0  0  0  0  0  0  0  0  0  0
   18.8820   10.5460   24.2160 C   0  0  0  0  0  0  0  0  0  0  0  0
   18.6730    9.1890   24.1140 C   0  0  0  0  0  0  0  0  0  0  0  0
   19.2880    8.3140   25.0000 C   0  0  0  0  0  0  0  0  0  0  0  0
   20.0870    8.8500   25.9940 C   0  0  0  0  0  0  0  0  0  0  0  0
   20.2620   10.2160   26.1040 C   0  0  0  0  0  0  0  0  0  0  0  0
   21.0280   10.7180   27.1060 F   0  0  0  0  0  0  0  0  0  0  0  0
   15.8850   13.4670   26.6620 C   0  0  0  0  0  0  0  0  0  0  0  0
   17.2850   13.2920   26.2260 N   0  0  0  0  0  0  0  0  0  0  0  0
   17.7280   13.5940   24.9200 C   0  0  0  0  0  0  0  0  0  0  0  0
   16.7830   14.2050   24.1400 N   0  0  0  0  0  0  0  0  0  0  0  0
   18.9260   13.3450   24.4880 N   0  0  0  0  0  0  0  0  0  0  0  0
   19.8960   12.6080   25.2970 C   0  0  0  0  0  0  0  0  0  0  0  0
   21.2320   12.9610   24.6370 C   0  0  0  0  0  0  0  0  0  0  0  0
   19.9330   13.1670   26.7020 C   0  0  0  0  0  0  0  0  0  0  0  0
   18.3720   12.9320   27.5120 S   0  0  0  0  0  0  0  0  0  0  0  0
   18.2480   13.9980   28.4900 O   0  0  0  0  0  0  0  0  0  0  0  0
   18.1250   11.5520   27.7930 O   0  0  0  0  0  0  0  0  0  0  0  0
   16.9980   14.4550   23.2120 H   0  0  0  0  0  0  0  0  0  0  0  0
   15.8890   14.3940   24.5070 H   0  0  0  0  0  0  0  0  0  0  0  0
   17.8440    8.7590   23.0690 N   0  0  0  0  0  0  0  0  0  0  0  0
   18.1400    7.8690   22.0520 C   0  0  0  0  0  0  0  0  0  0  0  0
   19.2470    7.4000   21.8260 O   0  0  0  0  0  0  0  0  0  0  0  0
   16.9360    9.1390   23.0580 H   0  0  0  0  0  0  0  0  0  0  0  0
   16.9850    7.4530   21.2190 C   0  0  0  0  0  0  0  0  0  0  0  0
   15.7080    7.4680   21.7530 C   0  0  0  0  0  0  0  0  0  0  0  0
   14.6680    7.0680   20.9320 C   0  0  0  0  0  0  0  0  0  0  0  0
   14.9280    6.6780   19.6320 C   0  0  0  0  0  0  0  0  0  0  0  0
   13.9520    6.2740   18.8020 F   0  0  0  0  0  0  0  0  0  0  0  0
   16.2330    6.6920   19.1950 C   0  0  0  0  0  0  0  0  0  0  0  0
   17.2630    7.0690   19.9690 N   0  0  0  0  0  0  0  0  0  0  0  0
  8  9  1  0
  9 10  1  0
 10 11  1  0
 10 12  2  0
 12 13  1  0
 13 14  1  0
 13  1  1  0
  1  2  2  0
  2  3  1  0
  3 21  1  0
 21 22  1  0
 22 23  2  0
 22 25  1  0
 25 26  2  0
 26 27  1  0
 27 28  2  0
 28 29  1  0
 28 30  1  0
 30 31  2  0
  3  4  2  0
  4  5  1  0
  5  6  2  0
  6  7  1  0
 13 15  1  0
 15 16  1  0
 16 17  2  0
 16 18  2  0
 16  9  1  0
  6  1  1  0
 31 25  1  0
 11 19  1  0
 11 20  1  0
 21 24  1  0
M  END
> <meeko>
{"is_sidechain": false}

> <source_group>
BACE1-401 observed AD isoform

> <source_system>
BACE1_verubecestat_401

> <source_run>
alternate_401_seed3301_ex32

> <source_seed>
3301

> <vina_pose_rank>
12

> <vina_affinity_kcal_mol>
-8.2270000000000003

> <vina_rmsd_to_crystal_angstrom>
9.7110000000000003

> <minimizedAffinity>
-7.86977

> <CNNscore>
0.1723747700

> <CNNaffinity>
5.1792893410

> <CNN_VS>
0.8927788138

> <CNNaffinity_variance>
0.3612332344

$$$$
BACE1_verubecestat_401__alternate_401_seed3301_ex32__pose13


 31 33  0  0  0  0  0  0  0  0999 V2000
   25.4500   12.3880   19.3270 C   0  0  0  0  0  0  0  0  0  0  0  0
   26.1170   11.2120   18.9880 C   0  0  0  0  0  0  0  0  0  0  0  0
   25.4540   10.0240   18.7770 C   0  0  0  0  0  0  0  0  0  0  0  0
   24.0740    9.9550   18.9200 C   0  0  0  0  0  0  0  0  0  0  0  0
   23.3950   11.1140   19.2520 C   0  0  0  0  0  0  0  0  0  0  0  0
   24.0700   12.3050   19.4290 C   0  0  0  0  0  0  0  0  0  0  0  0
   23.3770   13.4340   19.7260 F   0  0  0  0  0  0  0  0  0  0  0  0
   26.4730   13.2360   23.8420 C   0  0  0  0  0  0  0  0  0  0  0  0
   26.4680   13.4830   22.3860 N   0  0  0  0  0  0  0  0  0  0  0  0
   25.6140   14.4230   21.7670 C   0  0  0  0  0  0  0  0  0  0  0  0
   24.9020   15.1910   22.6490 N   0  0  0  0  0  0  0  0  0  0  0  0
   25.5190   14.5750   20.4820 N   0  0  0  0  0  0  0  0  0  0  0  0
   26.2110   13.6860   19.5510 C   0  0  0  0  0  0  0  0  0  0  0  0
   26.2120   14.4890   18.2470 C   0  0  0  0  0  0  0  0  0  0  0  0
   27.6550   13.5180   19.9690 C   0  0  0  0  0  0  0  0  0  0  0  0
   27.7610   12.7150   21.5480 S   0  0  0  0  0  0  0  0  0  0  0  0
   28.9980   13.1670   22.1600 O   0  0  0  0  0  0  0  0  0  0  0  0
   27.3550   11.3470   21.4730 O   0  0  0  0  0  0  0  0  0  0  0  0
   24.2790   15.8750   22.3130 H   0  0  0  0  0  0  0  0  0  0  0  0
   25.0130   15.0600   23.6180 H   0  0  0  0  0  0  0  0  0  0  0  0
   26.2430    8.9150   18.4450 N   0  0  0  0  0  0  0  0  0  0  0  0
   26.4830    7.7790   19.1960 C   0  0  0  0  0  0  0  0  0  0  0  0
   26.1360    7.6160   20.3590 O   0  0  0  0  0  0  0  0  0  0  0  0
   26.6810    8.9490   17.5640 H   0  0  0  0  0  0  0  0  0  0  0  0
   27.1910    6.6870   18.4840 C   0  0  0  0  0  0  0  0  0  0  0  0
   26.7010    6.2190   17.2770 C   0  0  0  0  0  0  0  0  0  0  0  0
   27.3990    5.1970   16.6570 C   0  0  0  0  0  0  0  0  0  0  0  0
   28.5410    4.6890   17.2450 C   0  0  0  0  0  0  0  0  0  0  0  0
   29.2460    3.6910   16.6850 F   0  0  0  0  0  0  0  0  0  0  0  0
   28.9460    5.2160   18.4500 C   0  0  0  0  0  0  0  0  0  0  0  0
   28.2860    6.2030   19.0790 N   0  0  0  0  0  0  0  0  0  0  0  0
  8  9  1  0
  9 10  1  0
 10 11  1  0
 10 12  2  0
 12 13  1  0
 13 14  1  0
 13  1  1  0
  1  2  2  0
  2  3  1  0
  3 21  1  0
 21 22  1  0
 22 23  2  0
 22 25  1  0
 25 26  2  0
 26 27  1  0
 27 28  2  0
 28 29  1  0
 28 30  1  0
 30 31  2  0
  3  4  2  0
  4  5  1  0
  5  6  2  0
  6  7  1  0
 13 15  1  0
 15 16  1  0
 16 17  2  0
 16 18  2  0
 16  9  1  0
  6  1  1  0
 31 25  1  0
 11 19  1  0
 11 20  1  0
 21 24  1  0
M  END
> <meeko>
{"is_sidechain": false}

> <source_group>
BACE1-401 observed AD isoform

> <source_system>
BACE1_verubecestat_401

> <source_run>
alternate_401_seed3301_ex32

> <source_seed>
3301

> <vina_pose_rank>
13

> <vina_affinity_kcal_mol>
-8.1940000000000008

> <vina_rmsd_to_crystal_angstrom>
5.6052999999999997

> <minimizedAffinity>
-8.18740

> <CNNscore>
0.3129672110

> <CNNaffinity>
5.5339584351

> <CNN_VS>
1.7319475412

> <CNNaffinity_variance>
0.0555173196

$$$$
BACE1_verubecestat_401__alternate_401_seed3301_ex32__pose14


 31 33  0  0  0  0  0  0  0  0999 V2000
   25.3560   10.9550   19.6530 C   0  0  0  0  0  0  0  0  0  0  0  0
   25.9900    9.8770   20.2700 C   0  0  0  0  0  0  0  0  0  0  0  0
   26.1330    8.6550   19.6530 C   0  0  0  0  0  0  0  0  0  0  0  0
   25.6210    8.4460   18.3790 C   0  0  0  0  0  0  0  0  0  0  0  0
   24.9910    9.5060   17.7500 C   0  0  0  0  0  0  0  0  0  0  0  0
   24.8830   10.7360   18.3680 C   0  0  0  0  0  0  0  0  0  0  0  0
   24.2870   11.7670   17.7170 F   0  0  0  0  0  0  0  0  0  0  0  0
   29.4690   12.9660   20.7420 C   0  0  0  0  0  0  0  0  0  0  0  0
   28.0000   12.8560   20.6450 N   0  0  0  0  0  0  0  0  0  0  0  0
   27.1800   12.5130   21.7420 C   0  0  0  0  0  0  0  0  0  0  0  0
   27.8490   12.4400   22.9350 N   0  0  0  0  0  0  0  0  0  0  0  0
   25.9020   12.3070   21.6510 N   0  0  0  0  0  0  0  0  0  0  0  0
   25.2160   12.2940   20.3600 C   0  0  0  0  0  0  0  0  0  0  0  0
   23.7490   12.4970   20.7490 C   0  0  0  0  0  0  0  0  0  0  0  0
   25.6280   13.4970   19.5410 C   0  0  0  0  0  0  0  0  0  0  0  0
   27.3590   13.4280   19.1530 S   0  0  0  0  0  0  0  0  0  0  0  0
   27.8020   14.8020   18.9930 O   0  0  0  0  0  0  0  0  0  0  0  0
   27.6510   12.3770   18.2300 O   0  0  0  0  0  0  0  0  0  0  0  0
   27.3620   12.2080   23.7580 H   0  0  0  0  0  0  0  0  0  0  0  0
   28.8160   12.6210   22.9690 H   0  0  0  0  0  0  0  0  0  0  0  0
   26.7870    7.6550   20.3850 N   0  0  0  0  0  0  0  0  0  0  0  0
   26.2360    6.5510   21.0090 C   0  0  0  0  0  0  0  0  0  0  0  0
   25.0370    6.3350   21.1310 O   0  0  0  0  0  0  0  0  0  0  0  0
   27.7640    7.7510   20.4650 H   0  0  0  0  0  0  0  0  0  0  0  0
   27.2140    5.5610   21.5250 C   0  0  0  0  0  0  0  0  0  0  0  0
   28.5690    5.7590   21.3230 C   0  0  0  0  0  0  0  0  0  0  0  0
   29.4360    4.8040   21.8230 C   0  0  0  0  0  0  0  0  0  0  0  0
   28.9360    3.7070   22.4970 C   0  0  0  0  0  0  0  0  0  0  0  0
   29.7380    2.7490   22.9920 F   0  0  0  0  0  0  0  0  0  0  0  0
   27.5720    3.5950   22.6430 C   0  0  0  0  0  0  0  0  0  0  0  0
   26.7050    4.5030   22.1630 N   0  0  0  0  0  0  0  0  0  0  0  0
  8  9  1  0
  9 10  1  0
 10 11  1  0
 10 12  2  0
 12 13  1  0
 13 14  1  0
 13  1  1  0
  1  2  2  0
  2  3  1  0
  3 21  1  0
 21 22  1  0
 22 23  2  0
 22 25  1  0
 25 26  2  0
 26 27  1  0
 27 28  2  0
 28 29  1  0
 28 30  1  0
 30 31  2  0
  3  4  2  0
  4  5  1  0
  5  6  2  0
  6  7  1  0
 13 15  1  0
 15 16  1  0
 16 17  2  0
 16 18  2  0
 16  9  1  0
  6  1  1  0
 31 25  1  0
 11 19  1  0
 11 20  1  0
 21 24  1  0
M  END
> <meeko>
{"is_sidechain": false}

> <source_group>
BACE1-401 observed AD isoform

> <source_system>
BACE1_verubecestat_401

> <source_run>
alternate_401_seed3301_ex32

> <source_seed>
3301

> <vina_pose_rank>
14

> <vina_affinity_kcal_mol>
-8.1660000000000004

> <vina_rmsd_to_crystal_angstrom>
5.2606000000000002

> <minimizedAffinity>
-7.51947

> <CNNscore>
0.1845218688

> <CNNaffinity>
5.0272960663

> <CNN_VS>
0.9276460409

> <CNNaffinity_variance>
0.2754609287

$$$$
BACE1_verubecestat_401__alternate_401_seed3301_ex32__pose15


 31 33  0  0  0  0  0  0  0  0999 V2000
   20.8240    6.6710   23.9140 C   0  0  0  0  0  0  0  0  0  0  0  0
   21.4150    7.7460   23.2520 C   0  0  0  0  0  0  0  0  0  0  0  0
   22.5060    7.5920   22.4260 C   0  0  0  0  0  0  0  0  0  0  0  0
   23.0760    6.3390   22.2400 C   0  0  0  0  0  0  0  0  0  0  0  0
   22.5000    5.2600   22.8870 C   0  0  0  0  0  0  0  0  0  0  0  0
   21.3870    5.4240   23.6870 C   0  0  0  0  0  0  0  0  0  0  0  0
   20.8230    4.3450   24.2870 F   0  0  0  0  0  0  0  0  0  0  0  0
   17.0770    8.4700   21.7070 C   0  0  0  0  0  0  0  0  0  0  0  0
   17.8420    7.9150   22.8410 N   0  0  0  0  0  0  0  0  0  0  0  0
   18.3880    8.7160   23.8680 C   0  0  0  0  0  0  0  0  0  0  0  0
   18.0180   10.0330   23.8010 N   0  0  0  0  0  0  0  0  0  0  0  0
   19.1530    8.2590   24.8110 N   0  0  0  0  0  0  0  0  0  0  0  0
   19.6180    6.8730   24.8180 C   0  0  0  0  0  0  0  0  0  0  0  0
   20.0490    6.6640   26.2720 C   0  0  0  0  0  0  0  0  0  0  0  0
   18.4600    5.9350   24.5600 C   0  0  0  0  0  0  0  0  0  0  0  0
   17.7910    6.1970   22.9370 S   0  0  0  0  0  0  0  0  0  0  0  0
   16.3920    5.8110   22.9980 O   0  0  0  0  0  0  0  0  0  0  0  0
   18.6980    5.7700   21.9180 O   0  0  0  0  0  0  0  0  0  0  0  0
   18.3480   10.6710   24.4740 H   0  0  0  0  0  0  0  0  0  0  0  0
   17.4210   10.3410   23.0810 H   0  0  0  0  0  0  0  0  0  0  0  0
   23.0050    8.7530   21.8230 N   0  0  0  0  0  0  0  0  0  0  0  0
   24.1970    8.9200   21.1390 C   0  0  0  0  0  0  0  0  0  0  0  0
   25.0870    8.0830   21.0610 O   0  0  0  0  0  0  0  0  0  0  0  0
   22.4360    9.5530   21.8950 H   0  0  0  0  0  0  0  0  0  0  0  0
   24.3460   10.2160   20.4330 C   0  0  0  0  0  0  0  0  0  0  0  0
   23.3770   10.6290   19.5360 C   0  0  0  0  0  0  0  0  0  0  0  0
   23.5680   11.8450   18.9040 C   0  0  0  0  0  0  0  0  0  0  0  0
   24.6930   12.5970   19.1830 C   0  0  0  0  0  0  0  0  0  0  0  0
   24.9250   13.7790   18.5880 F   0  0  0  0  0  0  0  0  0  0  0  0
   25.6030   12.0980   20.0870 C   0  0  0  0  0  0  0  0  0  0  0  0
   25.4480   10.9190   20.7120 N   0  0  0  0  0  0  0  0  0  0  0  0
  8  9  1  0
  9 10  1  0
 10 11  1  0
 10 12  2  0
 12 13  1  0
 13 14  1  0
 13  1  1  0
  1  2  2  0
  2  3  1  0
  3 21  1  0
 21 22  1  0
 22 23  2  0
 22 25  1  0
 25 26  2  0
 26 27  1  0
 27 28  2  0
 28 29  1  0
 28 30  1  0
 30 31  2  0
  3  4  2  0
  4  5  1  0
  5  6  2  0
  6  7  1  0
 13 15  1  0
 15 16  1  0
 16 17  2  0
 16 18  2  0
 16  9  1  0
  6  1  1  0
 31 25  1  0
 11 19  1  0
 11 20  1  0
 21 24  1  0
M  END
> <meeko>
{"is_sidechain": false}

> <source_group>
BACE1-401 observed AD isoform

> <source_system>
BACE1_verubecestat_401

> <source_run>
alternate_401_seed3301_ex32

> <source_seed>
3301

> <vina_pose_rank>
15

> <vina_affinity_kcal_mol>
-8.1539999999999999

> <vina_rmsd_to_crystal_angstrom>
6.2950999999999997

> <minimizedAffinity>
-7.88406

> <CNNscore>
0.3379743099

> <CNNaffinity>
5.1452651024

> <CNN_VS>
1.7389674187

> <CNNaffinity_variance>
0.3715953827

$$$$
BACE1_verubecestat_401__alternate_401_seed3301_ex32__pose16


 31 33  0  0  0  0  0  0  0  0999 V2000
   25.6420   13.2050   19.9240 C   0  0  0  0  0  0  0  0  0  0  0  0
   24.8820   12.3320   20.7000 C   0  0  0  0  0  0  0  0  0  0  0  0
   23.8020   11.6450   20.1930 C   0  0  0  0  0  0  0  0  0  0  0  0
   23.4160   11.8200   18.8700 C   0  0  0  0  0  0  0  0  0  0  0  0
   24.1610   12.6800   18.0830 C   0  0  0  0  0  0  0  0  0  0  0  0
   25.2610   13.3390   18.5970 C   0  0  0  0  0  0  0  0  0  0  0  0
   25.9930   14.1550   17.7960 F   0  0  0  0  0  0  0  0  0  0  0  0
   28.6040   10.4470   22.3250 C   0  0  0  0  0  0  0  0  0  0  0  0
   28.1060   11.7030   21.7300 N   0  0  0  0  0  0  0  0  0  0  0  0
   27.4650   12.7110   22.4830 C   0  0  0  0  0  0  0  0  0  0  0  0
   27.4820   12.4900   23.8340 N   0  0  0  0  0  0  0  0  0  0  0  0
   26.9270   13.7700   21.9610 N   0  0  0  0  0  0  0  0  0  0  0  0
   26.8310   13.9480   20.5130 C   0  0  0  0  0  0  0  0  0  0  0  0
   26.5950   15.4540   20.3680 C   0  0  0  0  0  0  0  0  0  0  0  0
   28.1630   13.6440   19.8630 C   0  0  0  0  0  0  0  0  0  0  0  0
   28.6000   11.9390   20.0980 S   0  0  0  0  0  0  0  0  0  0  0  0
   30.0500   11.8770   20.0740 O   0  0  0  0  0  0  0  0  0  0  0  0
   27.7460   11.0690   19.3520 O   0  0  0  0  0  0  0  0  0  0  0  0
   27.0600   13.1380   24.4440 H   0  0  0  0  0  0  0  0  0  0  0  0
   27.9160   11.6840   24.1960 H   0  0  0  0  0  0  0  0  0  0  0  0
   23.1220   10.8010   21.0800 N   0  0  0  0  0  0  0  0  0  0  0  0
   23.4740    9.5290   21.4940 C   0  0  0  0  0  0  0  0  0  0  0  0
   24.4000    8.8710   21.0370 O   0  0  0  0  0  0  0  0  0  0  0  0
   22.2860   11.1600   21.4570 H   0  0  0  0  0  0  0  0  0  0  0  0
   22.6600    8.9760   22.6030 C   0  0  0  0  0  0  0  0  0  0  0  0
   22.2800    7.6450   22.5840 C   0  0  0  0  0  0  0  0  0  0  0  0
   21.5200    7.1820   23.6430 C   0  0  0  0  0  0  0  0  0  0  0  0
   21.1720    8.0410   24.6680 C   0  0  0  0  0  0  0  0  0  0  0  0
   20.4270    7.6390   25.7120 F   0  0  0  0  0  0  0  0  0  0  0  0
   21.5930    9.3500   24.5940 C   0  0  0  0  0  0  0  0  0  0  0  0
   22.3270    9.8290   23.5770 N   0  0  0  0  0  0  0  0  0  0  0  0
  8  9  1  0
  9 10  1  0
 10 11  1  0
 10 12  2  0
 12 13  1  0
 13 14  1  0
 13  1  1  0
  1  2  2  0
  2  3  1  0
  3 21  1  0
 21 22  1  0
 22 23  2  0
 22 25  1  0
 25 26  2  0
 26 27  1  0
 27 28  2  0
 28 29  1  0
 28 30  1  0
 30 31  2  0
  3  4  2  0
  4  5  1  0
  5  6  2  0
  6  7  1  0
 13 15  1  0
 15 16  1  0
 16 17  2  0
 16 18  2  0
 16  9  1  0
  6  1  1  0
 31 25  1  0
 11 19  1  0
 11 20  1  0
 21 24  1  0
M  END
> <meeko>
{"is_sidechain": false}

> <source_group>
BACE1-401 observed AD isoform

> <source_system>
BACE1_verubecestat_401

> <source_run>
alternate_401_seed3301_ex32

> <source_seed>
3301

> <vina_pose_rank>
16

> <vina_affinity_kcal_mol>
-8.1180000000000003

> <vina_rmsd_to_crystal_angstrom>
6.7122999999999999

> <minimizedAffinity>
-7.49805

> <CNNscore>
0.1581764370

> <CNNaffinity>
5.2221093178

> <CNN_VS>
0.8260146379

> <CNNaffinity_variance>
0.1782461554

$$$$
BACE1_verubecestat_401__alternate_401_seed3301_ex32__pose17


 31 33  0  0  0  0  0  0  0  0999 V2000
   21.2610   12.3890   26.4190 C   0  0  0  0  0  0  0  0  0  0  0  0
   21.6060   12.1610   25.0880 C   0  0  0  0  0  0  0  0  0  0  0  0
   22.7690   12.6480   24.5350 C   0  0  0  0  0  0  0  0  0  0  0  0
   23.6420   13.4150   25.2960 C   0  0  0  0  0  0  0  0  0  0  0  0
   23.3180   13.6480   26.6200 C   0  0  0  0  0  0  0  0  0  0  0  0
   22.1630   13.1260   27.1700 C   0  0  0  0  0  0  0  0  0  0  0  0
   21.8830   13.3450   28.4810 F   0  0  0  0  0  0  0  0  0  0  0  0
   17.7490   15.5180   26.5670 C   0  0  0  0  0  0  0  0  0  0  0  0
   18.3980   14.2030   26.7390 N   0  0  0  0  0  0  0  0  0  0  0  0
   18.8370   13.7190   27.9920 C   0  0  0  0  0  0  0  0  0  0  0  0
   18.4720   14.5060   29.0510 N   0  0  0  0  0  0  0  0  0  0  0  0
   19.5050   12.6170   28.1460 N   0  0  0  0  0  0  0  0  0  0  0  0
   19.9700   11.8350   27.0020 C   0  0  0  0  0  0  0  0  0  0  0  0
   20.2550   10.4620   27.6180 C   0  0  0  0  0  0  0  0  0  0  0  0
   18.8460   11.6500   26.0070 C   0  0  0  0  0  0  0  0  0  0  0  0
   18.3420   13.2120   25.3320 S   0  0  0  0  0  0  0  0  0  0  0  0
   16.9450   13.0720   24.9610 O   0  0  0  0  0  0  0  0  0  0  0  0
   19.3470   13.7690   24.4820 O   0  0  0  0  0  0  0  0  0  0  0  0
   18.7310   14.2520   29.9650 H   0  0  0  0  0  0  0  0  0  0  0  0
   17.9490   15.3260   28.8970 H   0  0  0  0  0  0  0  0  0  0  0  0
   22.9950   12.3490   23.1850 N   0  0  0  0  0  0  0  0  0  0  0  0
   23.3540   13.2120   22.1650 C   0  0  0  0  0  0  0  0  0  0  0  0
   23.4100   14.4320   22.2610 O   0  0  0  0  0  0  0  0  0  0  0  0
   22.8840   11.4050   22.9290 H   0  0  0  0  0  0  0  0  0  0  0  0
   23.7270   12.5610   20.8860 C   0  0  0  0  0  0  0  0  0  0  0  0
   23.4440   11.2210   20.6850 C   0  0  0  0  0  0  0  0  0  0  0  0
   23.8150   10.6640   19.4740 C   0  0  0  0  0  0  0  0  0  0  0  0
   24.4390   11.4440   18.5200 C   0  0  0  0  0  0  0  0  0  0  0  0
   24.8260   10.9450   17.3340 F   0  0  0  0  0  0  0  0  0  0  0  0
   24.6840   12.7660   18.8150 C   0  0  0  0  0  0  0  0  0  0  0  0
   24.3410   13.3330   19.9830 N   0  0  0  0  0  0  0  0  0  0  0  0
  8  9  1  0
  9 10  1  0
 10 11  1  0
 10 12  2  0
 12 13  1  0
 13 14  1  0
 13  1  1  0
  1  2  2  0
  2  3  1  0
  3 21  1  0
 21 22  1  0
 22 23  2  0
 22 25  1  0
 25 26  2  0
 26 27  1  0
 27 28  2  0
 28 29  1  0
 28 30  1  0
 30 31  2  0
  3  4  2  0
  4  5  1  0
  5  6  2  0
  6  7  1  0
 13 15  1  0
 15 16  1  0
 16 17  2  0
 16 18  2  0
 16  9  1  0
  6  1  1  0
 31 25  1  0
 11 19  1  0
 11 20  1  0
 21 24  1  0
M  END
> <meeko>
{"is_sidechain": false}

> <source_group>
BACE1-401 observed AD isoform

> <source_system>
BACE1_verubecestat_401

> <source_run>
alternate_401_seed3301_ex32

> <source_seed>
3301

> <vina_pose_rank>
17

> <vina_affinity_kcal_mol>
-8.1170000000000009

> <vina_rmsd_to_crystal_angstrom>
6.6123000000000003

> <minimizedAffinity>
-8.18775

> <CNNscore>
0.5884292126

> <CNNaffinity>
5.4547410011

> <CNN_VS>
3.2097289562

> <CNNaffinity_variance>
0.3421095610

$$$$
BACE1_verubecestat_401__alternate_401_seed3301_ex32__pose18


 31 33  0  0  0  0  0  0  0  0999 V2000
   19.5880    5.9850   23.2870 C   0  0  0  0  0  0  0  0  0  0  0  0
   20.7040    5.6050   22.5420 C   0  0  0  0  0  0  0  0  0  0  0  0
   21.6480    4.7280   23.0260 C   0  0  0  0  0  0  0  0  0  0  0  0
   21.5280    4.2010   24.3060 C   0  0  0  0  0  0  0  0  0  0  0  0
   20.4250    4.5640   25.0580 C   0  0  0  0  0  0  0  0  0  0  0  0
   19.4690    5.4200   24.5470 C   0  0  0  0  0  0  0  0  0  0  0  0
   18.3810    5.7370   25.2950 F   0  0  0  0  0  0  0  0  0  0  0  0
   16.8550    4.1180   19.9400 C   0  0  0  0  0  0  0  0  0  0  0  0
   17.3390    5.1610   20.8670 N   0  0  0  0  0  0  0  0  0  0  0  0
   18.1580    6.2360   20.4560 C   0  0  0  0  0  0  0  0  0  0  0  0
   18.3380    6.3110   19.1010 N   0  0  0  0  0  0  0  0  0  0  0  0
   18.6800    7.0980   21.2730 N   0  0  0  0  0  0  0  0  0  0  0  0
   18.5600    6.9530   22.7230 C   0  0  0  0  0  0  0  0  0  0  0  0
   18.8750    8.3610   23.2350 C   0  0  0  0  0  0  0  0  0  0  0  0
   17.1260    6.6550   23.0980 C   0  0  0  0  0  0  0  0  0  0  0  0
   16.6130    5.0940   22.4270 S   0  0  0  0  0  0  0  0  0  0  0  0
   15.1770    5.1760   22.2370 O   0  0  0  0  0  0  0  0  0  0  0  0
   17.2780    4.0010   23.0660 O   0  0  0  0  0  0  0  0  0  0  0  0
   18.8940    7.0280   18.7180 H   0  0  0  0  0  0  0  0  0  0  0  0
   17.9110    5.6500   18.5100 H   0  0  0  0  0  0  0  0  0  0  0  0
   22.7230    4.4320   22.1770 N   0  0  0  0  0  0  0  0  0  0  0  0
   24.0520    4.2400   22.5120 C   0  0  0  0  0  0  0  0  0  0  0  0
   24.5330    4.4290   23.6210 O   0  0  0  0  0  0  0  0  0  0  0  0
   22.5040    4.3500   21.2210 H   0  0  0  0  0  0  0  0  0  0  0  0
   24.9130    3.7300   21.4170 C   0  0  0  0  0  0  0  0  0  0  0  0
   24.6570    4.0990   20.1080 C   0  0  0  0  0  0  0  0  0  0  0  0
   25.4910    3.5930   19.1260 C   0  0  0  0  0  0  0  0  0  0  0  0
   26.5330    2.7560   19.4740 C   0  0  0  0  0  0  0  0  0  0  0  0
   27.3630    2.2330   18.5550 F   0  0  0  0  0  0  0  0  0  0  0  0
   26.7040    2.4420   20.8030 C   0  0  0  0  0  0  0  0  0  0  0  0
   25.9070    2.9120   21.7770 N   0  0  0  0  0  0  0  0  0  0  0  0
  8  9  1  0
  9 10  1  0
 10 11  1  0
 10 12  2  0
 12 13  1  0
 13 14  1  0
 13  1  1  0
  1  2  2  0
  2  3  1  0
  3 21  1  0
 21 22  1  0
 22 23  2  0
 22 25  1  0
 25 26  2  0
 26 27  1  0
 27 28  2  0
 28 29  1  0
 28 30  1  0
 30 31  2  0
  3  4  2  0
  4  5  1  0
  5  6  2  0
  6  7  1  0
 13 15  1  0
 15 16  1  0
 16 17  2  0
 16 18  2  0
 16  9  1  0
  6  1  1  0
 31 25  1  0
 11 19  1  0
 11 20  1  0
 21 24  1  0
M  END
> <meeko>
{"is_sidechain": false}

> <source_group>
BACE1-401 observed AD isoform

> <source_system>
BACE1_verubecestat_401

> <source_run>
alternate_401_seed3301_ex32

> <source_seed>
3301

> <vina_pose_rank>
18

> <vina_affinity_kcal_mol>
-7.9980000000000002

> <vina_rmsd_to_crystal_angstrom>
7.8571999999999997

> <minimizedAffinity>
-7.85276

> <CNNscore>
0.0992392525

> <CNNaffinity>
4.5521249771

> <CNN_VS>
0.4517494738

> <CNNaffinity_variance>
0.7382512093

$$$$
BACE1_verubecestat_401__alternate_401_seed3301_ex32__pose19


 31 33  0  0  0  0  0  0  0  0999 V2000
   26.0240   12.0010   20.2910 C   0  0  0  0  0  0  0  0  0  0  0  0
   25.3410   11.0370   21.0310 C   0  0  0  0  0  0  0  0  0  0  0  0
   24.0460   10.6690   20.7440 C   0  0  0  0  0  0  0  0  0  0  0  0
   23.3580   11.2750   19.7000 C   0  0  0  0  0  0  0  0  0  0  0  0
   24.0220   12.2310   18.9520 C   0  0  0  0  0  0  0  0  0  0  0  0
   25.3320   12.5670   19.2320 C   0  0  0  0  0  0  0  0  0  0  0  0
   25.9700   13.4880   18.4650 F   0  0  0  0  0  0  0  0  0  0  0  0
   26.3670   15.7460   23.1210 C   0  0  0  0  0  0  0  0  0  0  0  0
   26.8560   14.6090   22.3160 N   0  0  0  0  0  0  0  0  0  0  0  0
   27.4220   14.7610   21.0310 C   0  0  0  0  0  0  0  0  0  0  0  0
   27.6170   16.0650   20.6610 N   0  0  0  0  0  0  0  0  0  0  0  0
   27.7560   13.7670   20.2670 N   0  0  0  0  0  0  0  0  0  0  0  0
   27.4560   12.3830   20.6320 C   0  0  0  0  0  0  0  0  0  0  0  0
   28.4080   11.5800   19.7410 C   0  0  0  0  0  0  0  0  0  0  0  0
   27.8650   12.1240   22.0650 C   0  0  0  0  0  0  0  0  0  0  0  0
   26.9090   13.1200   23.1800 S   0  0  0  0  0  0  0  0  0  0  0  0
   27.7340   13.3340   24.3550 O   0  0  0  0  0  0  0  0  0  0  0  0
   25.5430   12.7010   23.2230 O   0  0  0  0  0  0  0  0  0  0  0  0
   28.0070   16.2730   19.7820 H   0  0  0  0  0  0  0  0  0  0  0  0
   27.3680   16.7930   21.2750 H   0  0  0  0  0  0  0  0  0  0  0  0
   23.4740    9.6900   21.5670 N   0  0  0  0  0  0  0  0  0  0  0  0
   22.7660    9.8660   22.7420 C   0  0  0  0  0  0  0  0  0  0  0  0
   22.6340   10.9300   23.3330 O   0  0  0  0  0  0  0  0  0  0  0  0
   23.5910    8.7590   21.2710 H   0  0  0  0  0  0  0  0  0  0  0  0
   22.1060    8.6480   23.2720 C   0  0  0  0  0  0  0  0  0  0  0  0
   22.2240    7.4470   22.5940 C   0  0  0  0  0  0  0  0  0  0  0  0
   21.5860    6.3440   23.1310 C   0  0  0  0  0  0  0  0  0  0  0  0
   20.8680    6.4680   24.3050 C   0  0  0  0  0  0  0  0  0  0  0  0
   20.2240    5.4270   24.8590 F   0  0  0  0  0  0  0  0  0  0  0  0
   20.8030    7.7060   24.9030 C   0  0  0  0  0  0  0  0  0  0  0  0
   21.4060    8.7970   24.4020 N   0  0  0  0  0  0  0  0  0  0  0  0
  8  9  1  0
  9 10  1  0
 10 11  1  0
 10 12  2  0
 12 13  1  0
 13 14  1  0
 13  1  1  0
  1  2  2  0
  2  3  1  0
  3 21  1  0
 21 22  1  0
 22 23  2  0
 22 25  1  0
 25 26  2  0
 26 27  1  0
 27 28  2  0
 28 29  1  0
 28 30  1  0
 30 31  2  0
  3  4  2  0
  4  5  1  0
  5  6  2  0
  6  7  1  0
 13 15  1  0
 15 16  1  0
 16 17  2  0
 16 18  2  0
 16  9  1  0
  6  1  1  0
 31 25  1  0
 11 19  1  0
 11 20  1  0
 21 24  1  0
M  END
> <meeko>
{"is_sidechain": false}

> <source_group>
BACE1-401 observed AD isoform

> <source_system>
BACE1_verubecestat_401

> <source_run>
alternate_401_seed3301_ex32

> <source_seed>
3301

> <vina_pose_rank>
19

> <vina_affinity_kcal_mol>
-7.9909999999999997

> <vina_rmsd_to_crystal_angstrom>
6.7584

> <minimizedAffinity>
-7.90736

> <CNNscore>
0.2089343667

> <CNNaffinity>
5.3524322510

> <CNN_VS>
1.1183069944

> <CNNaffinity_variance>
0.0518235750

$$$$
BACE1_verubecestat_401__alternate_401_seed3301_ex32__pose20


 31 33  0  0  0  0  0  0  0  0999 V2000
   27.2700   12.7990   21.5080 C   0  0  0  0  0  0  0  0  0  0  0  0
   26.0360   12.5280   22.0960 C   0  0  0  0  0  0  0  0  0  0  0  0
   25.6480   13.0950   23.2880 C   0  0  0  0  0  0  0  0  0  0  0  0
   26.5010   13.9550   23.9690 C   0  0  0  0  0  0  0  0  0  0  0  0
   27.7290   14.2380   23.3980 C   0  0  0  0  0  0  0  0  0  0  0  0
   28.0920   13.6870   22.1850 C   0  0  0  0  0  0  0  0  0  0  0  0
   29.2910   14.0030   21.6330 F   0  0  0  0  0  0  0  0  0  0  0  0
   24.0670   13.3230   18.1000 C   0  0  0  0  0  0  0  0  0  0  0  0
   25.3460   12.8940   18.7010 N   0  0  0  0  0  0  0  0  0  0  0  0
   25.6020   11.5630   19.0980 C   0  0  0  0  0  0  0  0  0  0  0  0
   24.6220   10.6770   18.7370 N   0  0  0  0  0  0  0  0  0  0  0  0
   26.6750   11.1910   19.7250 N   0  0  0  0  0  0  0  0  0  0  0  0
   27.6690   12.1580   20.1870 C   0  0  0  0  0  0  0  0  0  0  0  0
   28.9120   11.2920   20.4130 C   0  0  0  0  0  0  0  0  0  0  0  0
   28.0020   13.1310   19.0780 C   0  0  0  0  0  0  0  0  0  0  0  0
   26.5770   14.0950   18.6410 S   0  0  0  0  0  0  0  0  0  0  0  0
   26.7430   14.4720   17.2490 O   0  0  0  0  0  0  0  0  0  0  0  0
   26.2170   15.0070   19.6820 O   0  0  0  0  0  0  0  0  0  0  0  0
   24.7110    9.7250   18.9700 H   0  0  0  0  0  0  0  0  0  0  0  0
   23.8290   10.9930   18.2460 H   0  0  0  0  0  0  0  0  0  0  0  0
   24.3820   12.7370   23.7710 N   0  0  0  0  0  0  0  0  0  0  0  0
   23.1470   13.2260   23.3830 C   0  0  0  0  0  0  0  0  0  0  0  0
   22.9700   14.1680   22.6220 O   0  0  0  0  0  0  0  0  0  0  0  0
   24.3700   12.0500   24.4760 H   0  0  0  0  0  0  0  0  0  0  0  0
   21.9770   12.4960   23.9300 C   0  0  0  0  0  0  0  0  0  0  0  0
   22.0300   11.1220   24.0840 C   0  0  0  0  0  0  0  0  0  0  0  0
   20.9100   10.4920   24.5970 C   0  0  0  0  0  0  0  0  0  0  0  0
   19.7970   11.2370   24.9370 C   0  0  0  0  0  0  0  0  0  0  0  0
   18.6840   10.6690   25.4300 F   0  0  0  0  0  0  0  0  0  0  0  0
   19.8390   12.5990   24.7420 C   0  0  0  0  0  0  0  0  0  0  0  0
   20.9090   13.2380   24.2410 N   0  0  0  0  0  0  0  0  0  0  0  0
  8  9  1  0
  9 10  1  0
 10 11  1  0
 10 12  2  0
 12 13  1  0
 13 14  1  0
 13  1  1  0
  1  2  2  0
  2  3  1  0
  3 21  1  0
 21 22  1  0
 22 23  2  0
 22 25  1  0
 25 26  2  0
 26 27  1  0
 27 28  2  0
 28 29  1  0
 28 30  1  0
 30 31  2  0
  3  4  2  0
  4  5  1  0
  5  6  2  0
  6  7  1  0
 13 15  1  0
 15 16  1  0
 16 17  2  0
 16 18  2  0
 16  9  1  0
  6  1  1  0
 31 25  1  0
 11 19  1  0
 11 20  1  0
 21 24  1  0
M  END
> <meeko>
{"is_sidechain": false}

> <source_group>
BACE1-401 observed AD isoform

> <source_system>
BACE1_verubecestat_401

> <source_run>
alternate_401_seed3301_ex32

> <source_seed>
3301

> <vina_pose_rank>
20

> <vina_affinity_kcal_mol>
-7.9900000000000002

> <vina_rmsd_to_crystal_angstrom>
7.6614000000000004

> <minimizedAffinity>
-7.30335

> <CNNscore>
0.0469851270

> <CNNaffinity>
4.1000256538

> <CNN_VS>
0.1926402301

> <CNNaffinity_variance>
1.0833774805

$$$$
