
     RDKit          3D

 45 50  0  0  0  0  0  0  0  0999 V2000
   -4.2723    1.8841   -1.5120 C   0  0  0  0  0  0  0  0  0  0  0  0
   -3.9055    2.1737   -0.0620 C   0  0  0  0  0  0  0  0  0  0  0  0
   -3.7680    0.9305    0.8445 C   0  0  1  0  0  0  0  0  0  0  0  0
   -3.3489    1.4046    2.1401 O   0  0  0  0  0  0  0  0  0  0  0  0
   -5.1607    0.2948    1.0460 C   0  0  0  0  0  0  0  0  0  0  0  0
   -5.9701    0.7992    1.8272 O   0  0  0  0  0  0  0  0  0  0  0  0
   -5.4980   -0.7831    0.3096 O   0  0  0  0  0  0  0  0  0  0  0  0
   -4.5358   -1.6326   -0.3493 C   0  0  0  0  0  0  0  0  0  0  0  0
   -3.1168   -1.2205   -0.1907 C   0  0  0  0  0  0  0  0  0  0  0  0
   -2.7393   -0.0525    0.3604 C   0  0  0  0  0  0  0  0  0  0  0  0
   -1.3243    0.2822    0.4698 C   0  0  0  0  0  0  0  0  0  0  0  0
   -0.4154   -0.5801    0.0072 C   0  0  0  0  0  0  0  0  0  0  0  0
   -0.7924   -1.7789   -0.5669 N   0  0  0  0  0  0  0  0  0  0  0  0
   -2.0934   -2.1863   -0.7091 C   0  0  0  0  0  0  0  0  0  0  0  0
   -2.4281   -3.2473   -1.2250 O   0  0  0  0  0  0  0  0  0  0  0  0
    0.3746   -2.5590   -0.9911 C   0  0  0  0  0  0  0  0  0  0  0  0
    1.5149   -1.6699   -0.6024 C   0  0  0  0  0  0  0  0  0  0  0  0
    2.8751   -1.8388   -0.7415 C   0  0  0  0  0  0  0  0  0  0  0  0
    3.7117   -0.8124   -0.2766 C   0  0  0  0  0  0  0  0  0  0  0  0
    5.1077   -0.9239   -0.3884 C   0  0  0  0  0  0  0  0  0  0  0  0
    5.8769    0.1144    0.0848 C   0  0  0  0  0  0  0  0  0  0  0  0
    5.3113    1.2291    0.6499 C   0  0  0  0  0  0  0  0  0  0  0  0
    3.9448    1.3697    0.7745 C   0  0  0  0  0  0  0  0  0  0  0  0
    3.1157    0.3561    0.3159 C   0  0  0  0  0  0  0  0  0  0  0  0
    1.7865    0.5104    0.4451 N   0  0  0  0  0  0  0  0  0  0  0  0
    1.0406   -0.5033   -0.0131 C   0  0  0  0  0  0  0  0  0  0  0  0
    6.2429    2.1351    1.0518 O   0  0  0  0  0  0  0  0  0  0  0  0
    7.4613    1.4600    0.6759 C   0  0  0  0  0  0  0  0  0  0  0  0
    7.2342    0.1753    0.0584 O   0  0  0  0  0  0  0  0  0  0  0  0
   -5.2243    1.3505   -1.5861 H   0  0  0  0  0  0  0  0  0  0  0  0
   -4.3757    2.8244   -2.0635 H   0  0  0  0  0  0  0  0  0  0  0  0
   -3.5006    1.2924   -2.0130 H   0  0  0  0  0  0  0  0  0  0  0  0
   -4.6642    2.8468    0.3598 H   0  0  0  0  0  0  0  0  0  0  0  0
   -2.9719    2.7516   -0.0412 H   0  0  0  0  0  0  0  0  0  0  0  0
   -4.1480    1.7772    2.5650 H   0  0  0  0  0  0  0  0  0  0  0  0
   -4.8057   -1.6575   -1.4106 H   0  0  0  0  0  0  0  0  0  0  0  0
   -4.6886   -2.6374    0.0591 H   0  0  0  0  0  0  0  0  0  0  0  0
   -1.0241    1.2180    0.9338 H   0  0  0  0  0  0  0  0  0  0  0  0
    0.3848   -3.5115   -0.4526 H   0  0  0  0  0  0  0  0  0  0  0  0
    0.3224   -2.7238   -2.0715 H   0  0  0  0  0  0  0  0  0  0  0  0
    3.2790   -2.7379   -1.1962 H   0  0  0  0  0  0  0  0  0  0  0  0
    5.5811   -1.7939   -0.8306 H   0  0  0  0  0  0  0  0  0  0  0  0
    3.5213    2.2604    1.2257 H   0  0  0  0  0  0  0  0  0  0  0  0
    8.0737    1.3148    1.5732 H   0  0  0  0  0  0  0  0  0  0  0  0
    8.0118    2.0950   -0.0278 H   0  0  0  0  0  0  0  0  0  0  0  0
  1  2  1  0
  2  3  1  0
  3  4  1  1
  3  5  1  0
  5  6  2  0
  5  7  1  0
  7  8  1  0
  8  9  1  0
  9 10  2  0
 10 11  1  0
 11 12  2  0
 12 13  1  0
 13 14  1  0
 14 15  2  0
 13 16  1  0
 16 17  1  0
 17 18  2  0
 18 19  1  0
 19 20  2  0
 20 21  1  0
 21 22  2  0
 22 23  1  0
 23 24  2  0
 24 25  1  0
 25 26  2  0
 22 27  1  0
 27 28  1  0
 28 29  1  0
 10  3  1  0
 26 12  1  0
 14  9  1  0
 26 17  1  0
 24 19  1  0
 29 21  1  0
  1 30  1  0
  1 31  1  0
  1 32  1  0
  2 33  1  0
  2 34  1  0
  4 35  1  0
  8 36  1  0
  8 37  1  0
 11 38  1  0
 16 39  1  0
 16 40  1  0
 18 41  1  0
 20 42  1  0
 23 43  1  0
 28 44  1  0
 28 45  1  0
M  END
$$$$
