BACE1_verubecestat__alternate_476_seed20260825_ex32__pose01


 31 33  0  0  0  0  0  0  0  0999 V2000
   24.7330   12.4960   21.0410 C   0  0  0  0  0  0  0  0  0  0  0  0
   24.0330   12.2490   22.2210 C   0  0  0  0  0  0  0  0  0  0  0  0
   23.4050   11.0490   22.4680 C   0  0  0  0  0  0  0  0  0  0  0  0
   23.4310   10.0340   21.5200 C   0  0  0  0  0  0  0  0  0  0  0  0
   24.1240   10.2600   20.3440 C   0  0  0  0  0  0  0  0  0  0  0  0
   24.7760   11.4570   20.1240 C   0  0  0  0  0  0  0  0  0  0  0  0
   25.4740   11.6430   18.9740 F   0  0  0  0  0  0  0  0  0  0  0  0
   27.6190   13.8050   24.5210 C   0  0  0  0  0  0  0  0  0  0  0  0
   26.9410   13.9100   23.2140 N   0  0  0  0  0  0  0  0  0  0  0  0
   25.8350   14.7590   22.9860 C   0  0  0  0  0  0  0  0  0  0  0  0
   25.5450   15.5870   24.0370 N   0  0  0  0  0  0  0  0  0  0  0  0
   25.1600   14.7840   21.8780 N   0  0  0  0  0  0  0  0  0  0  0  0
   25.4190   13.8310   20.8000 C   0  0  0  0  0  0  0  0  0  0  0  0
   24.7750   14.5050   19.5850 C   0  0  0  0  0  0  0  0  0  0  0  0
   26.9040   13.7480   20.5250 C   0  0  0  0  0  0  0  0  0  0  0  0
   27.7680   13.1050   21.9360 S   0  0  0  0  0  0  0  0  0  0  0  0
   29.1120   13.6510   21.8830 O   0  0  0  0  0  0  0  0  0  0  0  0
   27.4690   11.7230   22.1520 O   0  0  0  0  0  0  0  0  0  0  0  0
   24.7910   16.2160   23.9740 H   0  0  0  0  0  0  0  0  0  0  0  0
   26.0900   15.5530   24.8560 H   0  0  0  0  0  0  0  0  0  0  0  0
   22.7340   10.9320   23.6920 N   0  0  0  0  0  0  0  0  0  0  0  0
   23.2180   11.1860   24.9630 C   0  0  0  0  0  0  0  0  0  0  0  0
   24.3840   11.4410   25.2340 O   0  0  0  0  0  0  0  0  0  0  0  0
   21.7980   10.6300   23.6410 H   0  0  0  0  0  0  0  0  0  0  0  0
   22.2010   11.1730   26.0420 C   0  0  0  0  0  0  0  0  0  0  0  0
   20.9070   10.7670   25.7680 C   0  0  0  0  0  0  0  0  0  0  0  0
   19.9990   10.7760   26.8120 C   0  0  0  0  0  0  0  0  0  0  0  0
   20.4020   11.1780   28.0700 C   0  0  0  0  0  0  0  0  0  0  0  0
   19.5530   11.2130   29.1120 F   0  0  0  0  0  0  0  0  0  0  0  0
   21.7090   11.5710   28.2440 C   0  0  0  0  0  0  0  0  0  0  0  0
   22.6120   11.5780   27.2490 N   0  0  0  0  0  0  0  0  0  0  0  0
  8  9  1  0
  9 10  1  0
 10 11  1  0
 10 12  2  0
 12 13  1  0
 13 14  1  0
 13  1  1  0
  1  2  2  0
  2  3  1  0
  3 21  1  0
 21 22  1  0
 22 23  2  0
 22 25  1  0
 25 26  2  0
 26 27  1  0
 27 28  2  0
 28 29  1  0
 28 30  1  0
 30 31  2  0
  3  4  2  0
  4  5  1  0
  5  6  2  0
  6  7  1  0
 13 15  1  0
 15 16  1  0
 16 17  2  0
 16 18  2  0
 16  9  1  0
  6  1  1  0
 31 25  1  0
 11 19  1  0
 11 20  1  0
 21 24  1  0
M  END
> <meeko>
{"is_sidechain": false}

> <source_group>
BACE1-476

> <source_system>
BACE1_verubecestat

> <source_run>
alternate_476_seed20260825_ex32

> <source_seed>
20260825

> <vina_pose_rank>
1

> <vina_affinity_kcal_mol>
-9.1649999999999991

> <vina_rmsd_to_crystal_angstrom>
7.1215999999999999

> <minimizedAffinity>
-9.16392

> <CNNscore>
0.1180827543

> <CNNaffinity>
5.7055759430

> <CNN_VS>
0.6737301350

> <CNNaffinity_variance>
0.5605216026

$$$$
BACE1_verubecestat__alternate_476_seed20260825_ex32__pose02


 31 33  0  0  0  0  0  0  0  0999 V2000
   24.7600   12.3810   21.3000 C   0  0  0  0  0  0  0  0  0  0  0  0
   24.2890   12.4720   22.6090 C   0  0  0  0  0  0  0  0  0  0  0  0
   23.4460   11.5320   23.1550 C   0  0  0  0  0  0  0  0  0  0  0  0
   23.0120   10.4510   22.3980 C   0  0  0  0  0  0  0  0  0  0  0  0
   23.4730   10.3420   21.0970 C   0  0  0  0  0  0  0  0  0  0  0  0
   24.3440   11.2760   20.5730 C   0  0  0  0  0  0  0  0  0  0  0  0
   24.8040   11.1300   19.3040 F   0  0  0  0  0  0  0  0  0  0  0  0
   28.6270   13.1040   23.8840 C   0  0  0  0  0  0  0  0  0  0  0  0
   27.7100   13.2850   22.7410 N   0  0  0  0  0  0  0  0  0  0  0  0
   26.8430   14.3930   22.6160 C   0  0  0  0  0  0  0  0  0  0  0  0
   27.0360   15.3590   23.5680 N   0  0  0  0  0  0  0  0  0  0  0  0
   25.9560   14.5130   21.6780 N   0  0  0  0  0  0  0  0  0  0  0  0
   25.6940   13.4350   20.7260 C   0  0  0  0  0  0  0  0  0  0  0  0
   24.9790   14.1560   19.5790 C   0  0  0  0  0  0  0  0  0  0  0  0
   26.9970   12.9040   20.1710 C   0  0  0  0  0  0  0  0  0  0  0  0
   27.9710   12.1660   21.4590 S   0  0  0  0  0  0  0  0  0  0  0  0
   29.3590   12.2940   21.0520 O   0  0  0  0  0  0  0  0  0  0  0  0
   27.3830   10.9540   21.9370 O   0  0  0  0  0  0  0  0  0  0  0  0
   26.4800   16.1710   23.5640 H   0  0  0  0  0  0  0  0  0  0  0  0
   27.7320   15.2410   24.2550 H   0  0  0  0  0  0  0  0  0  0  0  0
   23.0440   11.7440   24.4810 N   0  0  0  0  0  0  0  0  0  0  0  0
   22.1160   12.6510   24.9600 C   0  0  0  0  0  0  0  0  0  0  0  0
   21.5760   13.5250   24.2940 O   0  0  0  0  0  0  0  0  0  0  0  0
   23.4770   11.1740   25.1570 H   0  0  0  0  0  0  0  0  0  0  0  0
   21.7520   12.4900   26.3890 C   0  0  0  0  0  0  0  0  0  0  0  0
   20.4210   12.3950   26.7570 C   0  0  0  0  0  0  0  0  0  0  0  0
   20.1400   12.2480   28.1040 C   0  0  0  0  0  0  0  0  0  0  0  0
   21.1720   12.1970   29.0210 C   0  0  0  0  0  0  0  0  0  0  0  0
   20.9460   12.0650   30.3390 F   0  0  0  0  0  0  0  0  0  0  0  0
   22.4630   12.3060   28.5580 C   0  0  0  0  0  0  0  0  0  0  0  0
   22.7670   12.4550   27.2580 N   0  0  0  0  0  0  0  0  0  0  0  0
  8  9  1  0
  9 10  1  0
 10 11  1  0
 10 12  2  0
 12 13  1  0
 13 14  1  0
 13  1  1  0
  1  2  2  0
  2  3  1  0
  3 21  1  0
 21 22  1  0
 22 23  2  0
 22 25  1  0
 25 26  2  0
 26 27  1  0
 27 28  2  0
 28 29  1  0
 28 30  1  0
 30 31  2  0
  3  4  2  0
  4  5  1  0
  5  6  2  0
  6  7  1  0
 13 15  1  0
 15 16  1  0
 16 17  2  0
 16 18  2  0
 16  9  1  0
  6  1  1  0
 31 25  1  0
 11 19  1  0
 11 20  1  0
 21 24  1  0
M  END
> <meeko>
{"is_sidechain": false}

> <source_group>
BACE1-476

> <source_system>
BACE1_verubecestat

> <source_run>
alternate_476_seed20260825_ex32

> <source_seed>
20260825

> <vina_pose_rank>
2

> <vina_affinity_kcal_mol>
-8.7070000000000007

> <vina_rmsd_to_crystal_angstrom>
7.4484000000000004

> <minimizedAffinity>
-8.65146

> <CNNscore>
0.2573852539

> <CNNaffinity>
6.1646838188

> <CNN_VS>
1.5866986513

> <CNNaffinity_variance>
0.3043020666

$$$$
BACE1_verubecestat__alternate_476_seed20260825_ex32__pose03


 31 33  0  0  0  0  0  0  0  0999 V2000
   26.9120   13.0580   22.9420 C   0  0  0  0  0  0  0  0  0  0  0  0
   25.8360   12.6820   23.7450 C   0  0  0  0  0  0  0  0  0  0  0  0
   25.6430   13.1980   25.0060 C   0  0  0  0  0  0  0  0  0  0  0  0
   26.5450   14.1110   25.5390 C   0  0  0  0  0  0  0  0  0  0  0  0
   27.6170   14.4980   24.7540 C   0  0  0  0  0  0  0  0  0  0  0  0
   27.7800   13.9960   23.4780 C   0  0  0  0  0  0  0  0  0  0  0  0
   28.8240   14.4150   22.7180 F   0  0  0  0  0  0  0  0  0  0  0  0
   23.1140   13.4660   20.1920 C   0  0  0  0  0  0  0  0  0  0  0  0
   24.5030   13.1020   20.5360 N   0  0  0  0  0  0  0  0  0  0  0  0
   24.9000   11.7790   20.8360 C   0  0  0  0  0  0  0  0  0  0  0  0
   23.9200   10.8450   20.6300 N   0  0  0  0  0  0  0  0  0  0  0  0
   26.0880   11.4580   21.2450 N   0  0  0  0  0  0  0  0  0  0  0  0
   27.0960   12.4720   21.5510 C   0  0  0  0  0  0  0  0  0  0  0  0
   28.4040   11.6770   21.5180 C   0  0  0  0  0  0  0  0  0  0  0  0
   27.1660   13.4880   20.4320 C   0  0  0  0  0  0  0  0  0  0  0  0
   25.6350   14.3750   20.2930 S   0  0  0  0  0  0  0  0  0  0  0  0
   25.5230   14.7920   18.9070 O   0  0  0  0  0  0  0  0  0  0  0  0
   25.4230   15.2400   21.4120 O   0  0  0  0  0  0  0  0  0  0  0  0
   24.1010    9.8940   20.8110 H   0  0  0  0  0  0  0  0  0  0  0  0
   23.0350   11.1240   20.3020 H   0  0  0  0  0  0  0  0  0  0  0  0
   24.5230   12.7340   25.7090 N   0  0  0  0  0  0  0  0  0  0  0  0
   23.1920   12.7920   25.3360 C   0  0  0  0  0  0  0  0  0  0  0  0
   22.7600   13.3900   24.3590 O   0  0  0  0  0  0  0  0  0  0  0  0
   24.7070   12.3130   26.5800 H   0  0  0  0  0  0  0  0  0  0  0  0
   22.2590   12.0260   26.1970 C   0  0  0  0  0  0  0  0  0  0  0  0
   21.0900   11.5110   25.6630 C   0  0  0  0  0  0  0  0  0  0  0  0
   20.2550   10.8060   26.5130 C   0  0  0  0  0  0  0  0  0  0  0  0
   20.6060   10.6370   27.8380 C   0  0  0  0  0  0  0  0  0  0  0  0
   19.8230    9.9690   28.7020 F   0  0  0  0  0  0  0  0  0  0  0  0
   21.7870   11.1920   28.2770 C   0  0  0  0  0  0  0  0  0  0  0  0
   22.6140   11.8850   27.4790 N   0  0  0  0  0  0  0  0  0  0  0  0
  8  9  1  0
  9 10  1  0
 10 11  1  0
 10 12  2  0
 12 13  1  0
 13 14  1  0
 13  1  1  0
  1  2  2  0
  2  3  1  0
  3 21  1  0
 21 22  1  0
 22 23  2  0
 22 25  1  0
 25 26  2  0
 26 27  1  0
 27 28  2  0
 28 29  1  0
 28 30  1  0
 30 31  2  0
  3  4  2  0
  4  5  1  0
  5  6  2  0
  6  7  1  0
 13 15  1  0
 15 16  1  0
 16 17  2  0
 16 18  2  0
 16  9  1  0
  6  1  1  0
 31 25  1  0
 11 19  1  0
 11 20  1  0
 21 24  1  0
M  END
> <meeko>
{"is_sidechain": false}

> <source_group>
BACE1-476

> <source_system>
BACE1_verubecestat

> <source_run>
alternate_476_seed20260825_ex32

> <source_seed>
20260825

> <vina_pose_rank>
3

> <vina_affinity_kcal_mol>
-8.548

> <vina_rmsd_to_crystal_angstrom>
7.5279999999999996

> <minimizedAffinity>
-8.53842

> <CNNscore>
0.0303944107

> <CNNaffinity>
4.2903971672

> <CNN_VS>
0.1304040998

> <CNNaffinity_variance>
1.8346080780

$$$$
BACE1_verubecestat__alternate_476_seed20260825_ex32__pose04


 31 33  0  0  0  0  0  0  0  0999 V2000
   26.1970   12.4740   21.1190 C   0  0  0  0  0  0  0  0  0  0  0  0
   27.0460   13.3490   21.7970 C   0  0  0  0  0  0  0  0  0  0  0  0
   28.3830   13.0800   21.9840 C   0  0  0  0  0  0  0  0  0  0  0  0
   28.9350   11.8950   21.5150 C   0  0  0  0  0  0  0  0  0  0  0  0
   28.1080   11.0160   20.8370 C   0  0  0  0  0  0  0  0  0  0  0  0
   26.7760   11.3130   20.6280 C   0  0  0  0  0  0  0  0  0  0  0  0
   25.9940   10.4470   19.9350 F   0  0  0  0  0  0  0  0  0  0  0  0
   23.3740   10.4900   24.3200 C   0  0  0  0  0  0  0  0  0  0  0  0
   23.7200   11.3300   23.1560 N   0  0  0  0  0  0  0  0  0  0  0  0
   23.5130   10.9180   21.8210 C   0  0  0  0  0  0  0  0  0  0  0  0
   22.8240    9.7410   21.7030 N   0  0  0  0  0  0  0  0  0  0  0  0
   23.9090   11.5950   20.7870 N   0  0  0  0  0  0  0  0  0  0  0  0
   24.7250   12.8000   20.9250 C   0  0  0  0  0  0  0  0  0  0  0  0
   24.5460   13.4920   19.5710 C   0  0  0  0  0  0  0  0  0  0  0  0
   24.1280   13.7140   21.9720 C   0  0  0  0  0  0  0  0  0  0  0  0
   24.1590   12.9420   23.5700 S   0  0  0  0  0  0  0  0  0  0  0  0
   23.0540   13.5080   24.3240 O   0  0  0  0  0  0  0  0  0  0  0  0
   25.4920   12.8170   24.0690 O   0  0  0  0  0  0  0  0  0  0  0  0
   22.6300    9.3710   20.8120 H   0  0  0  0  0  0  0  0  0  0  0  0
   22.5230    9.2630   22.5100 H   0  0  0  0  0  0  0  0  0  0  0  0
   29.1230   14.0420   22.6840 N   0  0  0  0  0  0  0  0  0  0  0  0
   29.3720   14.1100   24.0430 C   0  0  0  0  0  0  0  0  0  0  0  0
   28.8610   13.3880   24.8900 O   0  0  0  0  0  0  0  0  0  0  0  0
   29.5180   14.7600   22.1390 H   0  0  0  0  0  0  0  0  0  0  0  0
   30.3670   15.1290   24.4550 C   0  0  0  0  0  0  0  0  0  0  0  0
   29.9580   16.2530   25.1510 C   0  0  0  0  0  0  0  0  0  0  0  0
   30.9290   17.1730   25.5080 C   0  0  0  0  0  0  0  0  0  0  0  0
   32.2490   16.9460   25.1700 C   0  0  0  0  0  0  0  0  0  0  0  0
   33.2240   17.8150   25.4870 F   0  0  0  0  0  0  0  0  0  0  0  0
   32.5570   15.8010   24.4710 C   0  0  0  0  0  0  0  0  0  0  0  0
   31.6360   14.8940   24.1060 N   0  0  0  0  0  0  0  0  0  0  0  0
  8  9  1  0
  9 10  1  0
 10 11  1  0
 10 12  2  0
 12 13  1  0
 13 14  1  0
 13  1  1  0
  1  2  2  0
  2  3  1  0
  3 21  1  0
 21 22  1  0
 22 23  2  0
 22 25  1  0
 25 26  2  0
 26 27  1  0
 27 28  2  0
 28 29  1  0
 28 30  1  0
 30 31  2  0
  3  4  2  0
  4  5  1  0
  5  6  2  0
  6  7  1  0
 13 15  1  0
 15 16  1  0
 16 17  2  0
 16 18  2  0
 16  9  1  0
  6  1  1  0
 31 25  1  0
 11 19  1  0
 11 20  1  0
 21 24  1  0
M  END
> <meeko>
{"is_sidechain": false}

> <source_group>
BACE1-476

> <source_system>
BACE1_verubecestat

> <source_run>
alternate_476_seed20260825_ex32

> <source_seed>
20260825

> <vina_pose_rank>
4

> <vina_affinity_kcal_mol>
-8.3610000000000007

> <vina_rmsd_to_crystal_angstrom>
5.3127000000000004

> <minimizedAffinity>
-8.84126

> <CNNscore>
0.2297420353

> <CNNaffinity>
5.7823867798

> <CNN_VS>
1.3284573555

> <CNNaffinity_variance>
0.1674714088

$$$$
BACE1_verubecestat__alternate_476_seed20260825_ex32__pose05


 31 33  0  0  0  0  0  0  0  0999 V2000
   20.9660   12.0910   27.3990 C   0  0  0  0  0  0  0  0  0  0  0  0
   21.5940   12.0120   26.1570 C   0  0  0  0  0  0  0  0  0  0  0  0
   22.7580   12.6900   25.8750 C   0  0  0  0  0  0  0  0  0  0  0  0
   23.3430   13.5090   26.8330 C   0  0  0  0  0  0  0  0  0  0  0  0
   22.7360   13.5970   28.0730 C   0  0  0  0  0  0  0  0  0  0  0  0
   21.5850   12.8860   28.3510 C   0  0  0  0  0  0  0  0  0  0  0  0
   21.0250   12.9670   29.5850 F   0  0  0  0  0  0  0  0  0  0  0  0
   17.0560   14.5350   26.4570 C   0  0  0  0  0  0  0  0  0  0  0  0
   17.8520   13.3640   26.8740 N   0  0  0  0  0  0  0  0  0  0  0  0
   18.0310   12.9970   28.2260 C   0  0  0  0  0  0  0  0  0  0  0  0
   17.2790   13.7300   29.1050 N   0  0  0  0  0  0  0  0  0  0  0  0
   18.8130   12.0380   28.6160 N   0  0  0  0  0  0  0  0  0  0  0  0
   19.6810   11.3270   27.6800 C   0  0  0  0  0  0  0  0  0  0  0  0
   20.0270   10.0430   28.4400 C   0  0  0  0  0  0  0  0  0  0  0  0
   18.8970   10.9180   26.4520 C   0  0  0  0  0  0  0  0  0  0  0  0
   18.3260   12.3470   25.5680 S   0  0  0  0  0  0  0  0  0  0  0  0
   17.1160   11.9480   24.8730 O   0  0  0  0  0  0  0  0  0  0  0  0
   19.4070   13.0570   24.9580 O   0  0  0  0  0  0  0  0  0  0  0  0
   17.3350   13.5480   30.0710 H   0  0  0  0  0  0  0  0  0  0  0  0
   16.6820   14.4380   28.7710 H   0  0  0  0  0  0  0  0  0  0  0  0
   23.2850   12.5260   24.5880 N   0  0  0  0  0  0  0  0  0  0  0  0
   23.1180   13.3420   23.4830 C   0  0  0  0  0  0  0  0  0  0  0  0
   22.3550   14.2980   23.4220 O   0  0  0  0  0  0  0  0  0  0  0  0
   23.8460   11.7280   24.4520 H   0  0  0  0  0  0  0  0  0  0  0  0
   23.9750   13.0140   22.3180 C   0  0  0  0  0  0  0  0  0  0  0  0
   23.4550   13.0790   21.0370 C   0  0  0  0  0  0  0  0  0  0  0  0
   24.2990   12.7610   19.9880 C   0  0  0  0  0  0  0  0  0  0  0  0
   25.6080   12.4000   20.2420 C   0  0  0  0  0  0  0  0  0  0  0  0
   26.4610   12.0740   19.2570 F   0  0  0  0  0  0  0  0  0  0  0  0
   26.0310   12.3600   21.5510 C   0  0  0  0  0  0  0  0  0  0  0  0
   25.2340   12.6570   22.5910 N   0  0  0  0  0  0  0  0  0  0  0  0
  8  9  1  0
  9 10  1  0
 10 11  1  0
 10 12  2  0
 12 13  1  0
 13 14  1  0
 13  1  1  0
  1  2  2  0
  2  3  1  0
  3 21  1  0
 21 22  1  0
 22 23  2  0
 22 25  1  0
 25 26  2  0
 26 27  1  0
 27 28  2  0
 28 29  1  0
 28 30  1  0
 30 31  2  0
  3  4  2  0
  4  5  1  0
  5  6  2  0
  6  7  1  0
 13 15  1  0
 15 16  1  0
 16 17  2  0
 16 18  2  0
 16  9  1  0
  6  1  1  0
 31 25  1  0
 11 19  1  0
 11 20  1  0
 21 24  1  0
M  END
> <meeko>
{"is_sidechain": false}

> <source_group>
BACE1-476

> <source_system>
BACE1_verubecestat

> <source_run>
alternate_476_seed20260825_ex32

> <source_seed>
20260825

> <vina_pose_rank>
5

> <vina_affinity_kcal_mol>
-8.3149999999999995

> <vina_rmsd_to_crystal_angstrom>
6.8596000000000004

> <minimizedAffinity>
-8.85326

> <CNNscore>
0.2577725351

> <CNNaffinity>
5.7405033112

> <CNN_VS>
1.4797440767

> <CNNaffinity_variance>
0.1967734098

$$$$
BACE1_verubecestat__alternate_476_seed20260825_ex32__pose06


 31 33  0  0  0  0  0  0  0  0999 V2000
   26.7600   13.0630   23.0810 C   0  0  0  0  0  0  0  0  0  0  0  0
   25.5770   12.6620   23.7000 C   0  0  0  0  0  0  0  0  0  0  0  0
   25.2390   13.0630   24.9720 C   0  0  0  0  0  0  0  0  0  0  0  0
   26.0940   13.8800   25.7020 C   0  0  0  0  0  0  0  0  0  0  0  0
   27.2710   14.2910   25.1020 C   0  0  0  0  0  0  0  0  0  0  0  0
   27.5820   13.9060   23.8130 C   0  0  0  0  0  0  0  0  0  0  0  0
   28.7290   14.3460   23.2360 F   0  0  0  0  0  0  0  0  0  0  0  0
   23.1880   13.4310   20.0390 C   0  0  0  0  0  0  0  0  0  0  0  0
   24.5650   13.1350   20.4780 N   0  0  0  0  0  0  0  0  0  0  0  0
   25.0330   11.8230   20.7140 C   0  0  0  0  0  0  0  0  0  0  0  0
   24.1470   10.8440   20.3530 N   0  0  0  0  0  0  0  0  0  0  0  0
   26.2040   11.5510   21.2030 N   0  0  0  0  0  0  0  0  0  0  0  0
   27.1030   12.6040   21.6720 C   0  0  0  0  0  0  0  0  0  0  0  0
   28.4650   11.9050   21.6980 C   0  0  0  0  0  0  0  0  0  0  0  0
   27.1920   13.7080   20.6420 C   0  0  0  0  0  0  0  0  0  0  0  0
   25.6160   14.4980   20.4320 S   0  0  0  0  0  0  0  0  0  0  0  0
   25.5900   15.0150   19.0760 O   0  0  0  0  0  0  0  0  0  0  0  0
   25.2470   15.2540   21.5880 O   0  0  0  0  0  0  0  0  0  0  0  0
   24.3830    9.8960   20.4790 H   0  0  0  0  0  0  0  0  0  0  0  0
   23.2740   11.0870   19.9680 H   0  0  0  0  0  0  0  0  0  0  0  0
   24.0230   12.5860   25.4790 N   0  0  0  0  0  0  0  0  0  0  0  0
   23.1950   13.1770   26.4170 C   0  0  0  0  0  0  0  0  0  0  0  0
   23.4670   14.1790   27.0650 O   0  0  0  0  0  0  0  0  0  0  0  0
   23.7190   11.7210   25.1220 H   0  0  0  0  0  0  0  0  0  0  0  0
   21.8720   12.5290   26.5910 C   0  0  0  0  0  0  0  0  0  0  0  0
   21.6700   11.6400   27.6320 C   0  0  0  0  0  0  0  0  0  0  0  0
   20.4170   11.0630   27.7460 C   0  0  0  0  0  0  0  0  0  0  0  0
   19.4260   11.3870   26.8400 C   0  0  0  0  0  0  0  0  0  0  0  0
   18.1980   10.8450   26.9050 F   0  0  0  0  0  0  0  0  0  0  0  0
   19.7250   12.2780   25.8340 C   0  0  0  0  0  0  0  0  0  0  0  0
   20.9330   12.8490   25.6950 N   0  0  0  0  0  0  0  0  0  0  0  0
  8  9  1  0
  9 10  1  0
 10 11  1  0
 10 12  2  0
 12 13  1  0
 13 14  1  0
 13  1  1  0
  1  2  2  0
  2  3  1  0
  3 21  1  0
 21 22  1  0
 22 23  2  0
 22 25  1  0
 25 26  2  0
 26 27  1  0
 27 28  2  0
 28 29  1  0
 28 30  1  0
 30 31  2  0
  3  4  2  0
  4  5  1  0
  5  6  2  0
  6  7  1  0
 13 15  1  0
 15 16  1  0
 16 17  2  0
 16 18  2  0
 16  9  1  0
  6  1  1  0
 31 25  1  0
 11 19  1  0
 11 20  1  0
 21 24  1  0
M  END
> <meeko>
{"is_sidechain": false}

> <source_group>
BACE1-476

> <source_system>
BACE1_verubecestat

> <source_run>
alternate_476_seed20260825_ex32

> <source_seed>
20260825

> <vina_pose_rank>
6

> <vina_affinity_kcal_mol>
-8.2219999999999995

> <vina_rmsd_to_crystal_angstrom>
7.9272

> <minimizedAffinity>
-8.53833

> <CNNscore>
0.0174227636

> <CNNaffinity>
3.9997310638

> <CNN_VS>
0.0696863681

> <CNNaffinity_variance>
1.8388704062

$$$$
BACE1_verubecestat__alternate_476_seed20260825_ex32__pose07


 31 33  0  0  0  0  0  0  0  0999 V2000
   26.5030   13.5840   22.6920 C   0  0  0  0  0  0  0  0  0  0  0  0
   25.6550   13.0130   23.6410 C   0  0  0  0  0  0  0  0  0  0  0  0
   24.2920   13.2040   23.6200 C   0  0  0  0  0  0  0  0  0  0  0  0
   23.7090   14.0060   22.6470 C   0  0  0  0  0  0  0  0  0  0  0  0
   24.5340   14.5780   21.6950 C   0  0  0  0  0  0  0  0  0  0  0  0
   25.8970   14.3510   21.7090 C   0  0  0  0  0  0  0  0  0  0  0  0
   26.6810   14.9000   20.7460 F   0  0  0  0  0  0  0  0  0  0  0  0
   28.8800   16.9760   24.9250 C   0  0  0  0  0  0  0  0  0  0  0  0
   28.6990   15.7020   24.2030 N   0  0  0  0  0  0  0  0  0  0  0  0
   29.0050   15.5430   22.8330 C   0  0  0  0  0  0  0  0  0  0  0  0
   29.6250   16.6280   22.2730 N   0  0  0  0  0  0  0  0  0  0  0  0
   28.7510   14.4650   22.1570 N   0  0  0  0  0  0  0  0  0  0  0  0
   28.0050   13.3510   22.7400 C   0  0  0  0  0  0  0  0  0  0  0  0
   28.3540   12.1830   21.8130 C   0  0  0  0  0  0  0  0  0  0  0  0
   28.5580   13.0130   24.1060 C   0  0  0  0  0  0  0  0  0  0  0  0
   28.3280   14.3700   25.2280 S   0  0  0  0  0  0  0  0  0  0  0  0
   29.3900   14.2760   26.2140 O   0  0  0  0  0  0  0  0  0  0  0  0
   26.9480   14.5600   25.5500 O   0  0  0  0  0  0  0  0  0  0  0  0
   29.8780   16.6130   21.3220 H   0  0  0  0  0  0  0  0  0  0  0  0
   29.8180   17.4220   22.8210 H   0  0  0  0  0  0  0  0  0  0  0  0
   23.5550   12.5760   24.6330 N   0  0  0  0  0  0  0  0  0  0  0  0
   23.2860   13.0380   25.9090 C   0  0  0  0  0  0  0  0  0  0  0  0
   23.7720   14.0430   26.4120 O   0  0  0  0  0  0  0  0  0  0  0  0
   23.1800   11.6940   24.4070 H   0  0  0  0  0  0  0  0  0  0  0  0
   22.3000   12.2390   26.6770 C   0  0  0  0  0  0  0  0  0  0  0  0
   21.1140   11.8470   26.0800 C   0  0  0  0  0  0  0  0  0  0  0  0
   20.2300   11.1050   26.8430 C   0  0  0  0  0  0  0  0  0  0  0  0
   20.5490   10.7820   28.1470 C   0  0  0  0  0  0  0  0  0  0  0  0
   19.7180   10.0720   28.9290 F   0  0  0  0  0  0  0  0  0  0  0  0
   21.7510   11.2240   28.6540 C   0  0  0  0  0  0  0  0  0  0  0  0
   22.6270   11.9500   27.9400 N   0  0  0  0  0  0  0  0  0  0  0  0
  8  9  1  0
  9 10  1  0
 10 11  1  0
 10 12  2  0
 12 13  1  0
 13 14  1  0
 13  1  1  0
  1  2  2  0
  2  3  1  0
  3 21  1  0
 21 22  1  0
 22 23  2  0
 22 25  1  0
 25 26  2  0
 26 27  1  0
 27 28  2  0
 28 29  1  0
 28 30  1  0
 30 31  2  0
  3  4  2  0
  4  5  1  0
  5  6  2  0
  6  7  1  0
 13 15  1  0
 15 16  1  0
 16 17  2  0
 16 18  2  0
 16  9  1  0
  6  1  1  0
 31 25  1  0
 11 19  1  0
 11 20  1  0
 21 24  1  0
M  END
> <meeko>
{"is_sidechain": false}

> <source_group>
BACE1-476

> <source_system>
BACE1_verubecestat

> <source_run>
alternate_476_seed20260825_ex32

> <source_seed>
20260825

> <vina_pose_rank>
7

> <vina_affinity_kcal_mol>
-8.1270000000000007

> <vina_rmsd_to_crystal_angstrom>
8.202

> <minimizedAffinity>
-8.59894

> <CNNscore>
0.0592628084

> <CNNaffinity>
4.5734610558

> <CNN_VS>
0.2710361481

> <CNNaffinity_variance>
1.2063752413

$$$$
BACE1_verubecestat__alternate_476_seed20260825_ex32__pose08


 31 33  0  0  0  0  0  0  0  0999 V2000
   25.6010   11.5740   21.3540 C   0  0  0  0  0  0  0  0  0  0  0  0
   25.0730   11.7110   22.6360 C   0  0  0  0  0  0  0  0  0  0  0  0
   23.8140   11.2620   22.9660 C   0  0  0  0  0  0  0  0  0  0  0  0
   23.0060   10.6660   22.0060 C   0  0  0  0  0  0  0  0  0  0  0  0
   23.5160   10.5190   20.7280 C   0  0  0  0  0  0  0  0  0  0  0  0
   24.7920   10.9450   20.4200 C   0  0  0  0  0  0  0  0  0  0  0  0
   25.2800   10.7620   19.1660 F   0  0  0  0  0  0  0  0  0  0  0  0
   25.8830   16.2530   20.9370 C   0  0  0  0  0  0  0  0  0  0  0  0
   26.3830   14.8650   20.9650 N   0  0  0  0  0  0  0  0  0  0  0  0
   26.6790   14.1290   19.7950 C   0  0  0  0  0  0  0  0  0  0  0  0
   26.6070   14.8650   18.6430 N   0  0  0  0  0  0  0  0  0  0  0  0
   27.0150   12.8760   19.7970 N   0  0  0  0  0  0  0  0  0  0  0  0
   26.9970   12.0780   21.0210 C   0  0  0  0  0  0  0  0  0  0  0  0
   27.8820   10.8810   20.6630 C   0  0  0  0  0  0  0  0  0  0  0  0
   27.6920   12.8240   22.1380 C   0  0  0  0  0  0  0  0  0  0  0  0
   26.8140   14.3140   22.5380 S   0  0  0  0  0  0  0  0  0  0  0  0
   27.7960   15.2440   23.0650 O   0  0  0  0  0  0  0  0  0  0  0  0
   25.5570   14.0350   23.1590 O   0  0  0  0  0  0  0  0  0  0  0  0
   26.7960   14.4400   17.7750 H   0  0  0  0  0  0  0  0  0  0  0  0
   26.3660   15.8190   18.6820 H   0  0  0  0  0  0  0  0  0  0  0  0
   23.4020   11.4640   24.2900 N   0  0  0  0  0  0  0  0  0  0  0  0
   22.5730   12.4530   24.7880 C   0  0  0  0  0  0  0  0  0  0  0  0
   22.1590   13.4120   24.1500 O   0  0  0  0  0  0  0  0  0  0  0  0
   23.7470   10.8200   24.9500 H   0  0  0  0  0  0  0  0  0  0  0  0
   22.1540   12.2770   26.1990 C   0  0  0  0  0  0  0  0  0  0  0  0
   21.5060   11.1160   26.5880 C   0  0  0  0  0  0  0  0  0  0  0  0
   21.1350   11.0050   27.9160 C   0  0  0  0  0  0  0  0  0  0  0  0
   21.4190   12.0300   28.7980 C   0  0  0  0  0  0  0  0  0  0  0  0
   21.0700   11.9710   30.0940 F   0  0  0  0  0  0  0  0  0  0  0  0
   22.0610   13.1480   28.3150 C   0  0  0  0  0  0  0  0  0  0  0  0
   22.4280   13.2870   27.0310 N   0  0  0  0  0  0  0  0  0  0  0  0
  8  9  1  0
  9 10  1  0
 10 11  1  0
 10 12  2  0
 12 13  1  0
 13 14  1  0
 13  1  1  0
  1  2  2  0
  2  3  1  0
  3 21  1  0
 21 22  1  0
 22 23  2  0
 22 25  1  0
 25 26  2  0
 26 27  1  0
 27 28  2  0
 28 29  1  0
 28 30  1  0
 30 31  2  0
  3  4  2  0
  4  5  1  0
  5  6  2  0
  6  7  1  0
 13 15  1  0
 15 16  1  0
 16 17  2  0
 16 18  2  0
 16  9  1  0
  6  1  1  0
 31 25  1  0
 11 19  1  0
 11 20  1  0
 21 24  1  0
M  END
> <meeko>
{"is_sidechain": false}

> <source_group>
BACE1-476

> <source_system>
BACE1_verubecestat

> <source_run>
alternate_476_seed20260825_ex32

> <source_seed>
20260825

> <vina_pose_rank>
8

> <vina_affinity_kcal_mol>
-7.9459999999999997

> <vina_rmsd_to_crystal_angstrom>
7.3140000000000001

> <minimizedAffinity>
-8.98025

> <CNNscore>
0.4390339553

> <CNNaffinity>
6.4704437256

> <CNN_VS>
2.8407444954

> <CNNaffinity_variance>
0.0527776778

$$$$
BACE1_verubecestat__alternate_476_seed20260825_ex32__pose09


 31 33  0  0  0  0  0  0  0  0999 V2000
   19.7100   11.5130   27.3400 C   0  0  0  0  0  0  0  0  0  0  0  0
   18.8270   10.8810   26.4660 C   0  0  0  0  0  0  0  0  0  0  0  0
   17.5900   11.4030   26.1640 C   0  0  0  0  0  0  0  0  0  0  0  0
   17.1650   12.5900   26.7490 C   0  0  0  0  0  0  0  0  0  0  0  0
   18.0300   13.2330   27.6160 C   0  0  0  0  0  0  0  0  0  0  0  0
   19.2810   12.7140   27.8850 C   0  0  0  0  0  0  0  0  0  0  0  0
   20.1230   13.3800   28.7170 F   0  0  0  0  0  0  0  0  0  0  0  0
   22.6180   11.3810   23.6420 C   0  0  0  0  0  0  0  0  0  0  0  0
   22.2080   11.1950   25.0470 N   0  0  0  0  0  0  0  0  0  0  0  0
   21.8470    9.9400   25.5850 C   0  0  0  0  0  0  0  0  0  0  0  0
   22.0570    8.8900   24.7330 N   0  0  0  0  0  0  0  0  0  0  0  0
   21.3810    9.7760   26.7850 N   0  0  0  0  0  0  0  0  0  0  0  0
   21.0720   10.9120   27.6510 C   0  0  0  0  0  0  0  0  0  0  0  0
   21.0260   10.2790   29.0440 C   0  0  0  0  0  0  0  0  0  0  0  0
   22.2220   11.8950   27.6490 C   0  0  0  0  0  0  0  0  0  0  0  0
   22.4510   12.5880   26.0310 S   0  0  0  0  0  0  0  0  0  0  0  0
   23.8550   12.9460   25.9290 O   0  0  0  0  0  0  0  0  0  0  0  0
   21.3730   13.4540   25.6700 O   0  0  0  0  0  0  0  0  0  0  0  0
   21.8360    7.9730   25.0170 H   0  0  0  0  0  0  0  0  0  0  0  0
   22.4300    9.0500   23.8350 H   0  0  0  0  0  0  0  0  0  0  0  0
   16.7980   10.6670   25.2730 N   0  0  0  0  0  0  0  0  0  0  0  0
   15.4540   10.8290   24.9850 C   0  0  0  0  0  0  0  0  0  0  0  0
   14.6940   11.5840   25.5760 O   0  0  0  0  0  0  0  0  0  0  0  0
   17.2560    9.9420   24.7900 H   0  0  0  0  0  0  0  0  0  0  0  0
   14.9510   10.0310   23.8400 C   0  0  0  0  0  0  0  0  0  0  0  0
   15.7220    9.0050   23.3220 C   0  0  0  0  0  0  0  0  0  0  0  0
   15.2040    8.2950   22.2530 C   0  0  0  0  0  0  0  0  0  0  0  0
   13.9600    8.6200   21.7480 C   0  0  0  0  0  0  0  0  0  0  0  0
   13.4210    7.9650   20.7060 F   0  0  0  0  0  0  0  0  0  0  0  0
   13.2720    9.6610   22.3280 C   0  0  0  0  0  0  0  0  0  0  0  0
   13.7500   10.3730   23.3620 N   0  0  0  0  0  0  0  0  0  0  0  0
  8  9  1  0
  9 10  1  0
 10 11  1  0
 10 12  2  0
 12 13  1  0
 13 14  1  0
 13  1  1  0
  1  2  2  0
  2  3  1  0
  3 21  1  0
 21 22  1  0
 22 23  2  0
 22 25  1  0
 25 26  2  0
 26 27  1  0
 27 28  2  0
 28 29  1  0
 28 30  1  0
 30 31  2  0
  3  4  2  0
  4  5  1  0
  5  6  2  0
  6  7  1  0
 13 15  1  0
 15 16  1  0
 16 17  2  0
 16 18  2  0
 16  9  1  0
  6  1  1  0
 31 25  1  0
 11 19  1  0
 11 20  1  0
 21 24  1  0
M  END
> <meeko>
{"is_sidechain": false}

> <source_group>
BACE1-476

> <source_system>
BACE1_verubecestat

> <source_run>
alternate_476_seed20260825_ex32

> <source_seed>
20260825

> <vina_pose_rank>
9

> <vina_affinity_kcal_mol>
-7.7350000000000003

> <vina_rmsd_to_crystal_angstrom>
10.483599999999999

> <minimizedAffinity>
-8.05287

> <CNNscore>
0.6529922485

> <CNNaffinity>
6.5229587555

> <CNN_VS>
4.2594413757

> <CNNaffinity_variance>
0.1275760978

$$$$
BACE1_verubecestat__alternate_476_seed20260825_ex32__pose10


 31 33  0  0  0  0  0  0  0  0999 V2000
   21.0600   12.0040   27.7370 C   0  0  0  0  0  0  0  0  0  0  0  0
   21.8650   12.3170   26.6430 C   0  0  0  0  0  0  0  0  0  0  0  0
   22.8890   13.2340   26.7200 C   0  0  0  0  0  0  0  0  0  0  0  0
   23.1430   13.9050   27.9100 C   0  0  0  0  0  0  0  0  0  0  0  0
   22.3560   13.6040   29.0080 C   0  0  0  0  0  0  0  0  0  0  0  0
   21.3530   12.6590   28.9230 C   0  0  0  0  0  0  0  0  0  0  0  0
   20.6140   12.3600   30.0230 F   0  0  0  0  0  0  0  0  0  0  0  0
   16.8910   13.8870   26.6310 C   0  0  0  0  0  0  0  0  0  0  0  0
   17.8490   12.8060   26.9340 N   0  0  0  0  0  0  0  0  0  0  0  0
   17.9150   12.1670   28.1920 C   0  0  0  0  0  0  0  0  0  0  0  0
   16.9150   12.5300   29.0530 N   0  0  0  0  0  0  0  0  0  0  0  0
   18.8200   11.2930   28.5110 N   0  0  0  0  0  0  0  0  0  0  0  0
   19.9370   10.9840   27.6200 C   0  0  0  0  0  0  0  0  0  0  0  0
   20.4360    9.6370   28.1490 C   0  0  0  0  0  0  0  0  0  0  0  0
   19.4310   10.7480   26.2140 C   0  0  0  0  0  0  0  0  0  0  0  0
   18.6990   12.2250   25.5550 S   0  0  0  0  0  0  0  0  0  0  0  0
   17.7050   11.7980   24.5860 O   0  0  0  0  0  0  0  0  0  0  0  0
   19.6810   13.2340   25.3070 O   0  0  0  0  0  0  0  0  0  0  0  0
   16.8750   12.1370   29.9550 H   0  0  0  0  0  0  0  0  0  0  0  0
   16.2340   13.1830   28.7700 H   0  0  0  0  0  0  0  0  0  0  0  0
   23.6200   13.4590   25.5470 N   0  0  0  0  0  0  0  0  0  0  0  0
   24.3150   12.5400   24.7810 C   0  0  0  0  0  0  0  0  0  0  0  0
   24.5120   11.3720   25.0880 O   0  0  0  0  0  0  0  0  0  0  0  0
   23.6420   14.3900   25.2270 H   0  0  0  0  0  0  0  0  0  0  0  0
   24.8130   13.0490   23.4790 C   0  0  0  0  0  0  0  0  0  0  0  0
   25.5950   14.1900   23.4360 C   0  0  0  0  0  0  0  0  0  0  0  0
   26.0300   14.6200   22.1950 C   0  0  0  0  0  0  0  0  0  0  0  0
   25.6810   13.9130   21.0610 C   0  0  0  0  0  0  0  0  0  0  0  0
   26.0720   14.2980   19.8340 F   0  0  0  0  0  0  0  0  0  0  0  0
   24.8940   12.7930   21.2050 C   0  0  0  0  0  0  0  0  0  0  0  0
   24.4520   12.3540   22.3950 N   0  0  0  0  0  0  0  0  0  0  0  0
  8  9  1  0
  9 10  1  0
 10 11  1  0
 10 12  2  0
 12 13  1  0
 13 14  1  0
 13  1  1  0
  1  2  2  0
  2  3  1  0
  3 21  1  0
 21 22  1  0
 22 23  2  0
 22 25  1  0
 25 26  2  0
 26 27  1  0
 27 28  2  0
 28 29  1  0
 28 30  1  0
 30 31  2  0
  3  4  2  0
  4  5  1  0
  5  6  2  0
  6  7  1  0
 13 15  1  0
 15 16  1  0
 16 17  2  0
 16 18  2  0
 16  9  1  0
  6  1  1  0
 31 25  1  0
 11 19  1  0
 11 20  1  0
 21 24  1  0
M  END
> <meeko>
{"is_sidechain": false}

> <source_group>
BACE1-476

> <source_system>
BACE1_verubecestat

> <source_run>
alternate_476_seed20260825_ex32

> <source_seed>
20260825

> <vina_pose_rank>
10

> <vina_affinity_kcal_mol>
-7.6559999999999997

> <vina_rmsd_to_crystal_angstrom>
7.0023

> <minimizedAffinity>
-8.33881

> <CNNscore>
0.0335335620

> <CNNaffinity>
5.0162405968

> <CNN_VS>
0.1682124138

> <CNNaffinity_variance>
0.2721850574

$$$$
BACE1_verubecestat__alternate_476_seed20260825_ex32__pose11


 31 33  0  0  0  0  0  0  0  0999 V2000
   25.9420   14.0280   22.8790 C   0  0  0  0  0  0  0  0  0  0  0  0
   24.8950   13.9650   23.7980 C   0  0  0  0  0  0  0  0  0  0  0  0
   25.1110   13.8720   25.1540 C   0  0  0  0  0  0  0  0  0  0  0  0
   26.4040   13.8150   25.6580 C   0  0  0  0  0  0  0  0  0  0  0  0
   27.4560   13.8800   24.7610 C   0  0  0  0  0  0  0  0  0  0  0  0
   27.2240   14.0050   23.4050 C   0  0  0  0  0  0  0  0  0  0  0  0
   28.2730   14.0970   22.5480 F   0  0  0  0  0  0  0  0  0  0  0  0
   25.1740    9.8810   20.7900 C   0  0  0  0  0  0  0  0  0  0  0  0
   25.2970   11.3500   20.8780 N   0  0  0  0  0  0  0  0  0  0  0  0
   26.4360   12.0560   20.4330 C   0  0  0  0  0  0  0  0  0  0  0  0
   27.3500   11.2770   19.7750 N   0  0  0  0  0  0  0  0  0  0  0  0
   26.6060   13.3310   20.6010 N   0  0  0  0  0  0  0  0  0  0  0  0
   25.6710   14.1340   21.3860 C   0  0  0  0  0  0  0  0  0  0  0  0
   25.9760   15.5630   20.9280 C   0  0  0  0  0  0  0  0  0  0  0  0
   24.2490   13.8300   20.9700 C   0  0  0  0  0  0  0  0  0  0  0  0
   23.8370   12.1420   21.3320 S   0  0  0  0  0  0  0  0  0  0  0  0
   22.8190   11.7490   20.3750 O   0  0  0  0  0  0  0  0  0  0  0  0
   23.7470   11.9110   22.7410 O   0  0  0  0  0  0  0  0  0  0  0  0
   28.1780   11.6790   19.4260 H   0  0  0  0  0  0  0  0  0  0  0  0
   27.1790   10.3150   19.6500 H   0  0  0  0  0  0  0  0  0  0  0  0
   23.9730   13.8140   25.9680 N   0  0  0  0  0  0  0  0  0  0  0  0
   23.2420   12.7000   26.3420 C   0  0  0  0  0  0  0  0  0  0  0  0
   23.4080   11.5700   25.9020 O   0  0  0  0  0  0  0  0  0  0  0  0
   23.6510   14.6760   26.3200 H   0  0  0  0  0  0  0  0  0  0  0  0
   22.2140   12.9370   27.3840 C   0  0  0  0  0  0  0  0  0  0  0  0
   22.5370   13.6520   28.5240 C   0  0  0  0  0  0  0  0  0  0  0  0
   21.5400   13.8420   29.4640 C   0  0  0  0  0  0  0  0  0  0  0  0
   20.2770   13.3270   29.2410 C   0  0  0  0  0  0  0  0  0  0  0  0
   19.2800   13.4780   30.1290 F   0  0  0  0  0  0  0  0  0  0  0  0
   20.0540   12.6250   28.0780 C   0  0  0  0  0  0  0  0  0  0  0  0
   21.0030   12.4190   27.1510 N   0  0  0  0  0  0  0  0  0  0  0  0
  8  9  1  0
  9 10  1  0
 10 11  1  0
 10 12  2  0
 12 13  1  0
 13 14  1  0
 13  1  1  0
  1  2  2  0
  2  3  1  0
  3 21  1  0
 21 22  1  0
 22 23  2  0
 22 25  1  0
 25 26  2  0
 26 27  1  0
 27 28  2  0
 28 29  1  0
 28 30  1  0
 30 31  2  0
  3  4  2  0
  4  5  1  0
  5  6  2  0
  6  7  1  0
 13 15  1  0
 15 16  1  0
 16 17  2  0
 16 18  2  0
 16  9  1  0
  6  1  1  0
 31 25  1  0
 11 19  1  0
 11 20  1  0
 21 24  1  0
M  END
> <meeko>
{"is_sidechain": false}

> <source_group>
BACE1-476

> <source_system>
BACE1_verubecestat

> <source_run>
alternate_476_seed20260825_ex32

> <source_seed>
20260825

> <vina_pose_rank>
11

> <vina_affinity_kcal_mol>
-7.5259999999999998

> <vina_rmsd_to_crystal_angstrom>
7.9542000000000002

> <minimizedAffinity>
-8.24762

> <CNNscore>
0.0205851626

> <CNNaffinity>
3.9354889393

> <CNN_VS>
0.0810126811

> <CNNaffinity_variance>
1.8345122337

$$$$
BACE1_verubecestat__alternate_476_seed20260825_ex32__pose12


 31 33  0  0  0  0  0  0  0  0999 V2000
   23.9580   13.6320   21.8040 C   0  0  0  0  0  0  0  0  0  0  0  0
   23.1950   13.1310   22.8580 C   0  0  0  0  0  0  0  0  0  0  0  0
   23.3260   13.5960   24.1470 C   0  0  0  0  0  0  0  0  0  0  0  0
   24.2560   14.5830   24.4480 C   0  0  0  0  0  0  0  0  0  0  0  0
   25.0190   15.0940   23.4140 C   0  0  0  0  0  0  0  0  0  0  0  0
   24.8550   14.6410   22.1200 C   0  0  0  0  0  0  0  0  0  0  0  0
   25.5960   15.1800   21.1180 F   0  0  0  0  0  0  0  0  0  0  0  0
   27.1820   10.4280   20.5810 C   0  0  0  0  0  0  0  0  0  0  0  0
   25.9890   11.2820   20.4100 N   0  0  0  0  0  0  0  0  0  0  0  0
   25.9990   12.4750   19.6550 C   0  0  0  0  0  0  0  0  0  0  0  0
   27.1660   12.6920   18.9730 N   0  0  0  0  0  0  0  0  0  0  0  0
   24.9930   13.2920   19.5830 N   0  0  0  0  0  0  0  0  0  0  0  0
   23.7890   13.1000   20.3900 C   0  0  0  0  0  0  0  0  0  0  0  0
   22.7480   13.9550   19.6610 C   0  0  0  0  0  0  0  0  0  0  0  0
   23.3250   11.6630   20.2970 C   0  0  0  0  0  0  0  0  0  0  0  0
   24.5360   10.5670   20.9940 S   0  0  0  0  0  0  0  0  0  0  0  0
   24.3800    9.2930   20.3150 O   0  0  0  0  0  0  0  0  0  0  0  0
   24.6270   10.7160   22.4130 O   0  0  0  0  0  0  0  0  0  0  0  0
   27.2680   13.4980   18.4170 H   0  0  0  0  0  0  0  0  0  0  0  0
   27.9020   12.0410   19.0370 H   0  0  0  0  0  0  0  0  0  0  0  0
   22.5000   13.0060   25.1140 N   0  0  0  0  0  0  0  0  0  0  0  0
   22.7340   11.8630   25.8580 C   0  0  0  0  0  0  0  0  0  0  0  0
   23.6720   11.0940   25.6920 O   0  0  0  0  0  0  0  0  0  0  0  0
   21.6460   13.4630   25.2850 H   0  0  0  0  0  0  0  0  0  0  0  0
   21.7650   11.6110   26.9520 C   0  0  0  0  0  0  0  0  0  0  0  0
   22.0140   12.1020   28.2220 C   0  0  0  0  0  0  0  0  0  0  0  0
   21.0780   11.8360   29.2050 C   0  0  0  0  0  0  0  0  0  0  0  0
   19.9450   11.1070   28.8980 C   0  0  0  0  0  0  0  0  0  0  0  0
   19.0140   10.8160   29.8210 F   0  0  0  0  0  0  0  0  0  0  0  0
   19.7890   10.6560   27.6070 C   0  0  0  0  0  0  0  0  0  0  0  0
   20.6830   10.8930   26.6330 N   0  0  0  0  0  0  0  0  0  0  0  0
  8  9  1  0
  9 10  1  0
 10 11  1  0
 10 12  2  0
 12 13  1  0
 13 14  1  0
 13  1  1  0
  1  2  2  0
  2  3  1  0
  3 21  1  0
 21 22  1  0
 22 23  2  0
 22 25  1  0
 25 26  2  0
 26 27  1  0
 27 28  2  0
 28 29  1  0
 28 30  1  0
 30 31  2  0
  3  4  2  0
  4  5  1  0
  5  6  2  0
  6  7  1  0
 13 15  1  0
 15 16  1  0
 16 17  2  0
 16 18  2  0
 16  9  1  0
  6  1  1  0
 31 25  1  0
 11 19  1  0
 11 20  1  0
 21 24  1  0
M  END
> <meeko>
{"is_sidechain": false}

> <source_group>
BACE1-476

> <source_system>
BACE1_verubecestat

> <source_run>
alternate_476_seed20260825_ex32

> <source_seed>
20260825

> <vina_pose_rank>
12

> <vina_affinity_kcal_mol>
-7.4560000000000004

> <vina_rmsd_to_crystal_angstrom>
7.5213999999999999

> <minimizedAffinity>
-7.93508

> <CNNscore>
0.0741939470

> <CNNaffinity>
4.9284758568

> <CNN_VS>
0.3656630814

> <CNNaffinity_variance>
1.1843464375

$$$$
BACE1_verubecestat__alternate_476_seed20260825_ex32__pose13


 31 33  0  0  0  0  0  0  0  0999 V2000
   24.9610   12.8420   21.3520 C   0  0  0  0  0  0  0  0  0  0  0  0
   25.7600   13.6890   20.5870 C   0  0  0  0  0  0  0  0  0  0  0  0
   25.2610   14.4180   19.5310 C   0  0  0  0  0  0  0  0  0  0  0  0
   23.9220   14.3110   19.1740 C   0  0  0  0  0  0  0  0  0  0  0  0
   23.1140   13.4770   19.9250 C   0  0  0  0  0  0  0  0  0  0  0  0
   23.6220   12.7770   21.0010 C   0  0  0  0  0  0  0  0  0  0  0  0
   22.8000   11.9880   21.7400 F   0  0  0  0  0  0  0  0  0  0  0  0
   26.9080   15.5310   24.6880 C   0  0  0  0  0  0  0  0  0  0  0  0
   26.4640   14.2760   24.0500 N   0  0  0  0  0  0  0  0  0  0  0  0
   27.3460   13.3970   23.3830 C   0  0  0  0  0  0  0  0  0  0  0  0
   28.6670   13.7330   23.5110 N   0  0  0  0  0  0  0  0  0  0  0  0
   26.9590   12.3480   22.7250 N   0  0  0  0  0  0  0  0  0  0  0  0
   25.5430   12.0530   22.5150 C   0  0  0  0  0  0  0  0  0  0  0  0
   25.5530   10.5660   22.1480 C   0  0  0  0  0  0  0  0  0  0  0  0
   24.7860   12.1820   23.8180 C   0  0  0  0  0  0  0  0  0  0  0  0
   24.8330   13.8550   24.4080 S   0  0  0  0  0  0  0  0  0  0  0  0
   24.7140   13.7890   25.8530 O   0  0  0  0  0  0  0  0  0  0  0  0
   24.0640   14.7290   23.5780 O   0  0  0  0  0  0  0  0  0  0  0  0
   29.3590   13.1800   23.0820 H   0  0  0  0  0  0  0  0  0  0  0  0
   28.9250   14.5270   24.0340 H   0  0  0  0  0  0  0  0  0  0  0  0
   26.1710   15.2300   18.8420 N   0  0  0  0  0  0  0  0  0  0  0  0
   26.5680   16.5200   19.1440 C   0  0  0  0  0  0  0  0  0  0  0  0
   26.0750   17.2220   20.0180 O   0  0  0  0  0  0  0  0  0  0  0  0
   26.5810   14.8310   18.0400 H   0  0  0  0  0  0  0  0  0  0  0  0
   27.7060   17.0360   18.3450 C   0  0  0  0  0  0  0  0  0  0  0  0
   27.5780   17.1810   16.9750 C   0  0  0  0  0  0  0  0  0  0  0  0
   28.6720   17.6650   16.2780 C   0  0  0  0  0  0  0  0  0  0  0  0
   29.8320   17.9860   16.9560 C   0  0  0  0  0  0  0  0  0  0  0  0
   30.9220   18.4510   16.3220 F   0  0  0  0  0  0  0  0  0  0  0  0
   29.8640   17.8030   18.3200 C   0  0  0  0  0  0  0  0  0  0  0  0
   28.8210   17.3290   19.0220 N   0  0  0  0  0  0  0  0  0  0  0  0
  8  9  1  0
  9 10  1  0
 10 11  1  0
 10 12  2  0
 12 13  1  0
 13 14  1  0
 13  1  1  0
  1  2  2  0
  2  3  1  0
  3 21  1  0
 21 22  1  0
 22 23  2  0
 22 25  1  0
 25 26  2  0
 26 27  1  0
 27 28  2  0
 28 29  1  0
 28 30  1  0
 30 31  2  0
  3  4  2  0
  4  5  1  0
  5  6  2  0
  6  7  1  0
 13 15  1  0
 15 16  1  0
 16 17  2  0
 16 18  2  0
 16  9  1  0
  6  1  1  0
 31 25  1  0
 11 19  1  0
 11 20  1  0
 21 24  1  0
M  END
> <meeko>
{"is_sidechain": false}

> <source_group>
BACE1-476

> <source_system>
BACE1_verubecestat

> <source_run>
alternate_476_seed20260825_ex32

> <source_seed>
20260825

> <vina_pose_rank>
13

> <vina_affinity_kcal_mol>
-7.4509999999999996

> <vina_rmsd_to_crystal_angstrom>
6.4904000000000002

> <minimizedAffinity>
-7.30822

> <CNNscore>
0.1296367496

> <CNNaffinity>
5.6224918365

> <CNN_VS>
0.7288815379

> <CNNaffinity_variance>
0.0632764772

$$$$
BACE1_verubecestat__alternate_476_seed20260825_ex32__pose14


 31 33  0  0  0  0  0  0  0  0999 V2000
   26.3300   13.3260   22.5910 C   0  0  0  0  0  0  0  0  0  0  0  0
   25.3420   12.9700   23.5080 C   0  0  0  0  0  0  0  0  0  0  0  0
   24.7630   13.8840   24.3590 C   0  0  0  0  0  0  0  0  0  0  0  0
   25.1700   15.2120   24.3480 C   0  0  0  0  0  0  0  0  0  0  0  0
   26.1480   15.5840   23.4420 C   0  0  0  0  0  0  0  0  0  0  0  0
   26.6960   14.6630   22.5720 C   0  0  0  0  0  0  0  0  0  0  0  0
   27.6330   15.0610   21.6730 F   0  0  0  0  0  0  0  0  0  0  0  0
   23.1730   10.5700   20.4500 C   0  0  0  0  0  0  0  0  0  0  0  0
   24.5150   11.0940   20.7700 N   0  0  0  0  0  0  0  0  0  0  0  0
   25.4140   10.4340   21.6370 C   0  0  0  0  0  0  0  0  0  0  0  0
   24.9920    9.1930   22.0330 N   0  0  0  0  0  0  0  0  0  0  0  0
   26.5510   10.9310   22.0130 N   0  0  0  0  0  0  0  0  0  0  0  0
   26.9470   12.2940   21.6610 C   0  0  0  0  0  0  0  0  0  0  0  0
   28.4630   12.2770   21.8780 C   0  0  0  0  0  0  0  0  0  0  0  0
   26.7140   12.5380   20.1870 C   0  0  0  0  0  0  0  0  0  0  0  0
   24.9840   12.4390   19.8020 S   0  0  0  0  0  0  0  0  0  0  0  0
   24.8920   12.0230   18.4140 O   0  0  0  0  0  0  0  0  0  0  0  0
   24.2550   13.5340   20.3620 O   0  0  0  0  0  0  0  0  0  0  0  0
   25.5510    8.6530   22.6380 H   0  0  0  0  0  0  0  0  0  0  0  0
   24.1310    8.8400   21.7120 H   0  0  0  0  0  0  0  0  0  0  0  0
   23.7830   13.3950   25.2330 N   0  0  0  0  0  0  0  0  0  0  0  0
   23.7950   13.3880   26.6170 C   0  0  0  0  0  0  0  0  0  0  0  0
   24.7510   13.7020   27.3140 O   0  0  0  0  0  0  0  0  0  0  0  0
   22.9840   13.0070   24.8080 H   0  0  0  0  0  0  0  0  0  0  0  0
   22.5180   12.9940   27.2590 C   0  0  0  0  0  0  0  0  0  0  0  0
   22.4660   12.7910   28.6270 C   0  0  0  0  0  0  0  0  0  0  0  0
   21.2490   12.4230   29.1730 C   0  0  0  0  0  0  0  0  0  0  0  0
   20.1450   12.2750   28.3560 C   0  0  0  0  0  0  0  0  0  0  0  0
   18.9450   11.9100   28.8400 F   0  0  0  0  0  0  0  0  0  0  0  0
   20.2970   12.4930   27.0060 C   0  0  0  0  0  0  0  0  0  0  0  0
   21.4670   12.8460   26.4460 N   0  0  0  0  0  0  0  0  0  0  0  0
  8  9  1  0
  9 10  1  0
 10 11  1  0
 10 12  2  0
 12 13  1  0
 13 14  1  0
 13  1  1  0
  1  2  2  0
  2  3  1  0
  3 21  1  0
 21 22  1  0
 22 23  2  0
 22 25  1  0
 25 26  2  0
 26 27  1  0
 27 28  2  0
 28 29  1  0
 28 30  1  0
 30 31  2  0
  3  4  2  0
  4  5  1  0
  5  6  2  0
  6  7  1  0
 13 15  1  0
 15 16  1  0
 16 17  2  0
 16 18  2  0
 16  9  1  0
  6  1  1  0
 31 25  1  0
 11 19  1  0
 11 20  1  0
 21 24  1  0
M  END
> <meeko>
{"is_sidechain": false}

> <source_group>
BACE1-476

> <source_system>
BACE1_verubecestat

> <source_run>
alternate_476_seed20260825_ex32

> <source_seed>
20260825

> <vina_pose_rank>
14

> <vina_affinity_kcal_mol>
-7.3300000000000001

> <vina_rmsd_to_crystal_angstrom>
7.6725000000000003

> <minimizedAffinity>
-7.35611

> <CNNscore>
0.0828841850

> <CNNaffinity>
5.2038273811

> <CNN_VS>
0.4313150048

> <CNNaffinity_variance>
0.8368214965

$$$$
BACE1_verubecestat__alternate_476_seed20260825_ex32__pose15


 31 33  0  0  0  0  0  0  0  0999 V2000
   26.8850   14.0660   23.2350 C   0  0  0  0  0  0  0  0  0  0  0  0
   25.5560   13.6810   23.4120 C   0  0  0  0  0  0  0  0  0  0  0  0
   24.9840   13.5630   24.6580 C   0  0  0  0  0  0  0  0  0  0  0  0
   25.7320   13.8080   25.8030 C   0  0  0  0  0  0  0  0  0  0  0  0
   27.0520   14.1940   25.6460 C   0  0  0  0  0  0  0  0  0  0  0  0
   27.6040   14.3390   24.3890 C   0  0  0  0  0  0  0  0  0  0  0  0
   28.8930   14.7480   24.2620 F   0  0  0  0  0  0  0  0  0  0  0  0
   28.9370   10.1200   21.6960 C   0  0  0  0  0  0  0  0  0  0  0  0
   28.4660   11.5180   21.6240 N   0  0  0  0  0  0  0  0  0  0  0  0
   29.3240   12.6280   21.7850 C   0  0  0  0  0  0  0  0  0  0  0  0
   30.6510   12.2990   21.8620 N   0  0  0  0  0  0  0  0  0  0  0  0
   28.9120   13.8580   21.8330 N   0  0  0  0  0  0  0  0  0  0  0  0
   27.4880   14.1900   21.8450 C   0  0  0  0  0  0  0  0  0  0  0  0
   27.4770   15.6640   21.4310 C   0  0  0  0  0  0  0  0  0  0  0  0
   26.7650   13.4200   20.7620 C   0  0  0  0  0  0  0  0  0  0  0  0
   26.8420   11.6750   21.0760 S   0  0  0  0  0  0  0  0  0  0  0  0
   26.7580   11.0180   19.7840 O   0  0  0  0  0  0  0  0  0  0  0  0
   26.0600   11.3100   22.2160 O   0  0  0  0  0  0  0  0  0  0  0  0
   31.3270   13.0060   21.9750 H   0  0  0  0  0  0  0  0  0  0  0  0
   30.9280   11.3560   21.8040 H   0  0  0  0  0  0  0  0  0  0  0  0
   23.6410   13.1660   24.6970 N   0  0  0  0  0  0  0  0  0  0  0  0
   23.1220   11.9320   25.0460 C   0  0  0  0  0  0  0  0  0  0  0  0
   23.7840   10.9250   25.2610 O   0  0  0  0  0  0  0  0  0  0  0  0
   22.9820   13.8530   24.4430 H   0  0  0  0  0  0  0  0  0  0  0  0
   21.6470   11.8840   25.1930 C   0  0  0  0  0  0  0  0  0  0  0  0
   21.0110   10.6700   25.3920 C   0  0  0  0  0  0  0  0  0  0  0  0
   19.6340   10.6840   25.5210 C   0  0  0  0  0  0  0  0  0  0  0  0
   18.9480   11.8810   25.4520 C   0  0  0  0  0  0  0  0  0  0  0  0
   17.6100   11.9420   25.5620 F   0  0  0  0  0  0  0  0  0  0  0  0
   19.6680   13.0360   25.2460 C   0  0  0  0  0  0  0  0  0  0  0  0
   21.0040   13.0540   25.1110 N   0  0  0  0  0  0  0  0  0  0  0  0
  8  9  1  0
  9 10  1  0
 10 11  1  0
 10 12  2  0
 12 13  1  0
 13 14  1  0
 13  1  1  0
  1  2  2  0
  2  3  1  0
  3 21  1  0
 21 22  1  0
 22 23  2  0
 22 25  1  0
 25 26  2  0
 26 27  1  0
 27 28  2  0
 28 29  1  0
 28 30  1  0
 30 31  2  0
  3  4  2  0
  4  5  1  0
  5  6  2  0
  6  7  1  0
 13 15  1  0
 15 16  1  0
 16 17  2  0
 16 18  2  0
 16  9  1  0
  6  1  1  0
 31 25  1  0
 11 19  1  0
 11 20  1  0
 21 24  1  0
M  END
> <meeko>
{"is_sidechain": false}

> <source_group>
BACE1-476

> <source_system>
BACE1_verubecestat

> <source_run>
alternate_476_seed20260825_ex32

> <source_seed>
20260825

> <vina_pose_rank>
15

> <vina_affinity_kcal_mol>
-7.2930000000000001

> <vina_rmsd_to_crystal_angstrom>
8.3597999999999999

> <minimizedAffinity>
-7.83757

> <CNNscore>
0.0158961024

> <CNNaffinity>
4.0586566925

> <CNN_VS>
0.0645168200

> <CNNaffinity_variance>
1.3760265112

$$$$
BACE1_verubecestat__alternate_476_seed20260825_ex32__pose16


 31 33  0  0  0  0  0  0  0  0999 V2000
   27.7520   14.7090   22.7230 C   0  0  0  0  0  0  0  0  0  0  0  0
   26.7800   14.3670   23.6620 C   0  0  0  0  0  0  0  0  0  0  0  0
   25.4340   14.4870   23.4050 C   0  0  0  0  0  0  0  0  0  0  0  0
   24.9920   14.9860   22.1860 C   0  0  0  0  0  0  0  0  0  0  0  0
   25.9420   15.3280   21.2400 C   0  0  0  0  0  0  0  0  0  0  0  0
   27.2900   15.1710   21.5000 C   0  0  0  0  0  0  0  0  0  0  0  0
   28.2010   15.4860   20.5450 F   0  0  0  0  0  0  0  0  0  0  0  0
   29.7670   18.6640   24.2890 C   0  0  0  0  0  0  0  0  0  0  0  0
   29.6980   17.2390   23.9090 N   0  0  0  0  0  0  0  0  0  0  0  0
   30.1980   16.7430   22.6850 C   0  0  0  0  0  0  0  0  0  0  0  0
   30.8860   17.6710   21.9500 N   0  0  0  0  0  0  0  0  0  0  0  0
   30.0500   15.5170   22.2890 N   0  0  0  0  0  0  0  0  0  0  0  0
   29.2330   14.5620   23.0360 C   0  0  0  0  0  0  0  0  0  0  0  0
   29.7170   13.2090   22.5070 C   0  0  0  0  0  0  0  0  0  0  0  0
   29.5860   14.6150   24.5050 C   0  0  0  0  0  0  0  0  0  0  0  0
   29.1900   16.2050   25.1880 S   0  0  0  0  0  0  0  0  0  0  0  0
   30.1000   16.4160   26.3000 O   0  0  0  0  0  0  0  0  0  0  0  0
   27.7770   16.4130   25.2560 O   0  0  0  0  0  0  0  0  0  0  0  0
   31.2740   17.4200   21.0800 H   0  0  0  0  0  0  0  0  0  0  0  0
   30.9940   18.5880   22.2910 H   0  0  0  0  0  0  0  0  0  0  0  0
   24.5620   14.1110   24.4350 N   0  0  0  0  0  0  0  0  0  0  0  0
   24.0700   12.8510   24.7240 C   0  0  0  0  0  0  0  0  0  0  0  0
   24.2240   11.8570   24.0250 O   0  0  0  0  0  0  0  0  0  0  0  0
   24.2620   14.8360   25.0300 H   0  0  0  0  0  0  0  0  0  0  0  0
   23.3350   12.7360   26.0070 C   0  0  0  0  0  0  0  0  0  0  0  0
   22.3930   11.7360   26.1770 C   0  0  0  0  0  0  0  0  0  0  0  0
   21.7360   11.6770   27.3930 C   0  0  0  0  0  0  0  0  0  0  0  0
   22.0340   12.5950   28.3820 C   0  0  0  0  0  0  0  0  0  0  0  0
   21.4160   12.5820   29.5750 F   0  0  0  0  0  0  0  0  0  0  0  0
   22.9820   13.5570   28.1160 C   0  0  0  0  0  0  0  0  0  0  0  0
   23.6320   13.6430   26.9430 N   0  0  0  0  0  0  0  0  0  0  0  0
  8  9  1  0
  9 10  1  0
 10 11  1  0
 10 12  2  0
 12 13  1  0
 13 14  1  0
 13  1  1  0
  1  2  2  0
  2  3  1  0
  3 21  1  0
 21 22  1  0
 22 23  2  0
 22 25  1  0
 25 26  2  0
 26 27  1  0
 27 28  2  0
 28 29  1  0
 28 30  1  0
 30 31  2  0
  3  4  2  0
  4  5  1  0
  5  6  2  0
  6  7  1  0
 13 15  1  0
 15 16  1  0
 16 17  2  0
 16 18  2  0
 16  9  1  0
  6  1  1  0
 31 25  1  0
 11 19  1  0
 11 20  1  0
 21 24  1  0
M  END
> <meeko>
{"is_sidechain": false}

> <source_group>
BACE1-476

> <source_system>
BACE1_verubecestat

> <source_run>
alternate_476_seed20260825_ex32

> <source_seed>
20260825

> <vina_pose_rank>
16

> <vina_affinity_kcal_mol>
-7.1609999999999996

> <vina_rmsd_to_crystal_angstrom>
8.7199000000000009

> <minimizedAffinity>
-7.67710

> <CNNscore>
0.0145121962

> <CNNaffinity>
3.5986120701

> <CNN_VS>
0.0522237644

> <CNNaffinity_variance>
1.5077552795

$$$$
BACE1_verubecestat__alternate_476_seed20260825_ex32__pose17


 31 33  0  0  0  0  0  0  0  0999 V2000
   24.9570   13.6090   23.3580 C   0  0  0  0  0  0  0  0  0  0  0  0
   25.8730   14.3860   22.6500 C   0  0  0  0  0  0  0  0  0  0  0  0
   27.0540   14.8210   23.2060 C   0  0  0  0  0  0  0  0  0  0  0  0
   27.3680   14.5110   24.5240 C   0  0  0  0  0  0  0  0  0  0  0  0
   26.4720   13.7370   25.2400 C   0  0  0  0  0  0  0  0  0  0  0  0
   25.3050   13.2810   24.6600 C   0  0  0  0  0  0  0  0  0  0  0  0
   24.4570   12.4990   25.3760 F   0  0  0  0  0  0  0  0  0  0  0  0
   25.4940   11.9610   18.9830 C   0  0  0  0  0  0  0  0  0  0  0  0
   24.7650   12.3040   20.2200 N   0  0  0  0  0  0  0  0  0  0  0  0
   23.9560   13.4550   20.3430 C   0  0  0  0  0  0  0  0  0  0  0  0
   23.7860   14.1430   19.1710 N   0  0  0  0  0  0  0  0  0  0  0  0
   23.3960   13.8290   21.4520 N   0  0  0  0  0  0  0  0  0  0  0  0
   23.6610   13.1420   22.7150 C   0  0  0  0  0  0  0  0  0  0  0  0
   22.4860   13.5780   23.5950 C   0  0  0  0  0  0  0  0  0  0  0  0
   23.5410   11.6460   22.5270 C   0  0  0  0  0  0  0  0  0  0  0  0
   24.7810   11.0540   21.4030 S   0  0  0  0  0  0  0  0  0  0  0  0
   24.2380    9.8620   20.7780 O   0  0  0  0  0  0  0  0  0  0  0  0
   26.0910   11.1380   21.9710 O   0  0  0  0  0  0  0  0  0  0  0  0
   23.2380   14.9600   19.1550 H   0  0  0  0  0  0  0  0  0  0  0  0
   24.2120   13.8190   18.3440 H   0  0  0  0  0  0  0  0  0  0  0  0
   27.8850   15.5970   22.3880 N   0  0  0  0  0  0  0  0  0  0  0  0
   29.1980   15.3550   22.0240 C   0  0  0  0  0  0  0  0  0  0  0  0
   29.9010   14.4620   22.4770 O   0  0  0  0  0  0  0  0  0  0  0  0
   27.4830   16.4190   22.0250 H   0  0  0  0  0  0  0  0  0  0  0  0
   29.7390   16.2530   20.9740 C   0  0  0  0  0  0  0  0  0  0  0  0
   28.8760   16.9220   20.1240 C   0  0  0  0  0  0  0  0  0  0  0  0
   29.4360   17.7440   19.1620 C   0  0  0  0  0  0  0  0  0  0  0  0
   30.8090   17.8740   19.0830 C   0  0  0  0  0  0  0  0  0  0  0  0
   31.3970   18.6540   18.1600 F   0  0  0  0  0  0  0  0  0  0  0  0
   31.5850   17.1640   19.9700 C   0  0  0  0  0  0  0  0  0  0  0  0
   31.0710   16.3530   20.9100 N   0  0  0  0  0  0  0  0  0  0  0  0
  8  9  1  0
  9 10  1  0
 10 11  1  0
 10 12  2  0
 12 13  1  0
 13 14  1  0
 13  1  1  0
  1  2  2  0
  2  3  1  0
  3 21  1  0
 21 22  1  0
 22 23  2  0
 22 25  1  0
 25 26  2  0
 26 27  1  0
 27 28  2  0
 28 29  1  0
 28 30  1  0
 30 31  2  0
  3  4  2  0
  4  5  1  0
  5  6  2  0
  6  7  1  0
 13 15  1  0
 15 16  1  0
 16 17  2  0
 16 18  2  0
 16  9  1  0
  6  1  1  0
 31 25  1  0
 11 19  1  0
 11 20  1  0
 21 24  1  0
M  END
> <meeko>
{"is_sidechain": false}

> <source_group>
BACE1-476

> <source_system>
BACE1_verubecestat

> <source_run>
alternate_476_seed20260825_ex32

> <source_seed>
20260825

> <vina_pose_rank>
17

> <vina_affinity_kcal_mol>
-7.0679999999999996

> <vina_rmsd_to_crystal_angstrom>
6.5101000000000004

> <minimizedAffinity>
-7.16927

> <CNNscore>
0.0747098252

> <CNNaffinity>
4.8061442375

> <CNN_VS>
0.3590661883

> <CNNaffinity_variance>
0.7223407626

$$$$
BACE1_verubecestat__alternate_476_seed20260825_ex32__pose18


 31 33  0  0  0  0  0  0  0  0999 V2000
   26.9810   14.5260   20.6100 C   0  0  0  0  0  0  0  0  0  0  0  0
   28.1900   15.1210   20.9660 C   0  0  0  0  0  0  0  0  0  0  0  0
   28.5050   16.4150   20.6160 C   0  0  0  0  0  0  0  0  0  0  0  0
   27.6190   17.1750   19.8630 C   0  0  0  0  0  0  0  0  0  0  0  0
   26.4130   16.6010   19.5030 C   0  0  0  0  0  0  0  0  0  0  0  0
   26.0970   15.3130   19.8890 C   0  0  0  0  0  0  0  0  0  0  0  0
   24.8940   14.7840   19.5480 F   0  0  0  0  0  0  0  0  0  0  0  0
   27.2930   13.7470   25.2410 C   0  0  0  0  0  0  0  0  0  0  0  0
   27.0250   13.4140   23.8280 N   0  0  0  0  0  0  0  0  0  0  0  0
   27.9280   12.6830   23.0240 C   0  0  0  0  0  0  0  0  0  0  0  0
   29.0010   12.1820   23.7100 N   0  0  0  0  0  0  0  0  0  0  0  0
   27.7590   12.4760   21.7550 N   0  0  0  0  0  0  0  0  0  0  0  0
   26.6610   13.0950   21.0140 C   0  0  0  0  0  0  0  0  0  0  0  0
   26.5690   12.2330   19.7520 C   0  0  0  0  0  0  0  0  0  0  0  0
   25.3620   12.9180   21.7680 C   0  0  0  0  0  0  0  0  0  0  0  0
   25.4180   13.7700   23.3240 S   0  0  0  0  0  0  0  0  0  0  0  0
   24.5200   13.0600   24.2170 O   0  0  0  0  0  0  0  0  0  0  0  0
   25.4210   15.1890   23.1480 O   0  0  0  0  0  0  0  0  0  0  0  0
   29.6870   11.6570   23.2370 H   0  0  0  0  0  0  0  0  0  0  0  0
   29.0870   12.3440   24.6780 H   0  0  0  0  0  0  0  0  0  0  0  0
   29.7540   16.8920   21.0350 N   0  0  0  0  0  0  0  0  0  0  0  0
   30.1670   17.2010   22.3190 C   0  0  0  0  0  0  0  0  0  0  0  0
   29.4420   17.2260   23.3050 O   0  0  0  0  0  0  0  0  0  0  0  0
   30.4230   17.0240   20.3250 H   0  0  0  0  0  0  0  0  0  0  0  0
   31.6160   17.4820   22.4680 C   0  0  0  0  0  0  0  0  0  0  0  0
   32.1720   17.5920   23.7300 C   0  0  0  0  0  0  0  0  0  0  0  0
   33.5280   17.8570   23.8110 C   0  0  0  0  0  0  0  0  0  0  0  0
   34.2710   17.9970   22.6550 C   0  0  0  0  0  0  0  0  0  0  0  0
   35.5880   18.2630   22.6830 F   0  0  0  0  0  0  0  0  0  0  0  0
   33.6260   17.8750   21.4450 C   0  0  0  0  0  0  0  0  0  0  0  0
   32.3110   17.6250   21.3350 N   0  0  0  0  0  0  0  0  0  0  0  0
  8  9  1  0
  9 10  1  0
 10 11  1  0
 10 12  2  0
 12 13  1  0
 13 14  1  0
 13  1  1  0
  1  2  2  0
  2  3  1  0
  3 21  1  0
 21 22  1  0
 22 23  2  0
 22 25  1  0
 25 26  2  0
 26 27  1  0
 27 28  2  0
 28 29  1  0
 28 30  1  0
 30 31  2  0
  3  4  2  0
  4  5  1  0
  5  6  2  0
  6  7  1  0
 13 15  1  0
 15 16  1  0
 16 17  2  0
 16 18  2  0
 16  9  1  0
  6  1  1  0
 31 25  1  0
 11 19  1  0
 11 20  1  0
 21 24  1  0
M  END
> <meeko>
{"is_sidechain": false}

> <source_group>
BACE1-476

> <source_system>
BACE1_verubecestat

> <source_run>
alternate_476_seed20260825_ex32

> <source_seed>
20260825

> <vina_pose_rank>
18

> <vina_affinity_kcal_mol>
-7.0220000000000002

> <vina_rmsd_to_crystal_angstrom>
6.9776999999999996

> <minimizedAffinity>
-6.90267

> <CNNscore>
0.0210912265

> <CNNaffinity>
3.7388546467

> <CNN_VS>
0.0788570270

> <CNNaffinity_variance>
1.1359465122

$$$$
BACE1_verubecestat__alternate_476_seed20260825_ex32__pose19


 31 33  0  0  0  0  0  0  0  0999 V2000
   26.4350   14.3920   22.6860 C   0  0  0  0  0  0  0  0  0  0  0  0
   26.7190   15.0470   21.4890 C   0  0  0  0  0  0  0  0  0  0  0  0
   27.9590   15.5780   21.2160 C   0  0  0  0  0  0  0  0  0  0  0  0
   28.9810   15.4950   22.1530 C   0  0  0  0  0  0  0  0  0  0  0  0
   28.7190   14.8450   23.3450 C   0  0  0  0  0  0  0  0  0  0  0  0
   27.4790   14.2890   23.5930 C   0  0  0  0  0  0  0  0  0  0  0  0
   27.2570   13.6310   24.7590 F   0  0  0  0  0  0  0  0  0  0  0  0
   24.8130   11.6490   19.2230 C   0  0  0  0  0  0  0  0  0  0  0  0
   24.7950   12.3220   20.5360 N   0  0  0  0  0  0  0  0  0  0  0  0
   24.0430   13.4900   20.7920 C   0  0  0  0  0  0  0  0  0  0  0  0
   23.2160   13.8550   19.7640 N   0  0  0  0  0  0  0  0  0  0  0  0
   24.1000   14.1560   21.9050 N   0  0  0  0  0  0  0  0  0  0  0  0
   25.0550   13.8130   22.9570 C   0  0  0  0  0  0  0  0  0  0  0  0
   24.4650   14.4990   24.1920 C   0  0  0  0  0  0  0  0  0  0  0  0
   25.0260   12.3240   23.2200 C   0  0  0  0  0  0  0  0  0  0  0  0
   25.5630   11.4230   21.7880 S   0  0  0  0  0  0  0  0  0  0  0  0
   24.9120   10.1260   21.8460 O   0  0  0  0  0  0  0  0  0  0  0  0
   26.9580   11.6120   21.5390 O   0  0  0  0  0  0  0  0  0  0  0  0
   22.6510   14.6570   19.8480 H   0  0  0  0  0  0  0  0  0  0  0  0
   23.1860   13.3150   18.9410 H   0  0  0  0  0  0  0  0  0  0  0  0
   28.1110   16.2140   19.9760 N   0  0  0  0  0  0  0  0  0  0  0  0
   28.7000   17.4360   19.7060 C   0  0  0  0  0  0  0  0  0  0  0  0
   29.0790   18.2370   20.5510 O   0  0  0  0  0  0  0  0  0  0  0  0
   27.7530   15.7280   19.1980 H   0  0  0  0  0  0  0  0  0  0  0  0
   28.8970   17.7400   18.2680 C   0  0  0  0  0  0  0  0  0  0  0  0
   30.1690   17.9860   17.7820 C   0  0  0  0  0  0  0  0  0  0  0  0
   30.2950   18.2660   16.4330 C   0  0  0  0  0  0  0  0  0  0  0  0
   29.1720   18.2890   15.6270 C   0  0  0  0  0  0  0  0  0  0  0  0
   29.2440   18.5650   14.3140 F   0  0  0  0  0  0  0  0  0  0  0  0
   27.9490   18.0380   16.2050 C   0  0  0  0  0  0  0  0  0  0  0  0
   27.7950   17.7680   17.5120 N   0  0  0  0  0  0  0  0  0  0  0  0
  8  9  1  0
  9 10  1  0
 10 11  1  0
 10 12  2  0
 12 13  1  0
 13 14  1  0
 13  1  1  0
  1  2  2  0
  2  3  1  0
  3 21  1  0
 21 22  1  0
 22 23  2  0
 22 25  1  0
 25 26  2  0
 26 27  1  0
 27 28  2  0
 28 29  1  0
 28 30  1  0
 30 31  2  0
  3  4  2  0
  4  5  1  0
  5  6  2  0
  6  7  1  0
 13 15  1  0
 15 16  1  0
 16 17  2  0
 16 18  2  0
 16  9  1  0
  6  1  1  0
 31 25  1  0
 11 19  1  0
 11 20  1  0
 21 24  1  0
M  END
> <meeko>
{"is_sidechain": false}

> <source_group>
BACE1-476

> <source_system>
BACE1_verubecestat

> <source_run>
alternate_476_seed20260825_ex32

> <source_seed>
20260825

> <vina_pose_rank>
19

> <vina_affinity_kcal_mol>
-6.984

> <vina_rmsd_to_crystal_angstrom>
7.6291000000000002

> <minimizedAffinity>
-7.06987

> <CNNscore>
0.0531623065

> <CNNaffinity>
4.3459382057

> <CNN_VS>
0.2310401052

> <CNNaffinity_variance>
1.1496723890

$$$$
BACE1_verubecestat__alternate_476_seed20260825_ex32__pose20


 31 33  0  0  0  0  0  0  0  0999 V2000
   26.5330   12.3910   21.4270 C   0  0  0  0  0  0  0  0  0  0  0  0
   26.9120   13.2750   22.4350 C   0  0  0  0  0  0  0  0  0  0  0  0
   28.1520   13.2260   23.0310 C   0  0  0  0  0  0  0  0  0  0  0  0
   29.0750   12.2590   22.6540 C   0  0  0  0  0  0  0  0  0  0  0  0
   28.7180   11.3750   21.6510 C   0  0  0  0  0  0  0  0  0  0  0  0
   27.4820   11.4570   21.0400 C   0  0  0  0  0  0  0  0  0  0  0  0
   27.1670   10.5960   20.0390 F   0  0  0  0  0  0  0  0  0  0  0  0
   22.9840   11.9640   24.4880 C   0  0  0  0  0  0  0  0  0  0  0  0
   23.6170   12.1710   23.1700 N   0  0  0  0  0  0  0  0  0  0  0  0
   23.7010   11.1590   22.1880 C   0  0  0  0  0  0  0  0  0  0  0  0
   23.0110   10.0200   22.5050 N   0  0  0  0  0  0  0  0  0  0  0  0
   24.3470   11.2900   21.0710 N   0  0  0  0  0  0  0  0  0  0  0  0
   25.1570   12.4730   20.7860 C   0  0  0  0  0  0  0  0  0  0  0  0
   25.3160   12.4210   19.2640 C   0  0  0  0  0  0  0  0  0  0  0  0
   24.3750   13.7280   21.1070 C   0  0  0  0  0  0  0  0  0  0  0  0
   24.0130   13.8140   22.8420 S   0  0  0  0  0  0  0  0  0  0  0  0
   22.7900   14.5850   22.9720 O   0  0  0  0  0  0  0  0  0  0  0  0
   25.1930   14.0430   23.6160 O   0  0  0  0  0  0  0  0  0  0  0  0
   23.0090    9.2570   21.8820 H   0  0  0  0  0  0  0  0  0  0  0  0
   22.5170    9.9630   23.3540 H   0  0  0  0  0  0  0  0  0  0  0  0
   28.4050   14.1710   24.0340 N   0  0  0  0  0  0  0  0  0  0  0  0
   28.8170   15.4840   23.8900 C   0  0  0  0  0  0  0  0  0  0  0  0
   29.1570   16.0030   22.8360 O   0  0  0  0  0  0  0  0  0  0  0  0
   28.2720   13.8610   24.9590 H   0  0  0  0  0  0  0  0  0  0  0  0
   28.7930   16.2940   25.1320 C   0  0  0  0  0  0  0  0  0  0  0  0
   28.6840   15.6700   26.3630 C   0  0  0  0  0  0  0  0  0  0  0  0
   28.6650   16.4740   27.4890 C   0  0  0  0  0  0  0  0  0  0  0  0
   28.7580   17.8460   27.3550 C   0  0  0  0  0  0  0  0  0  0  0  0
   28.7350   18.6680   28.4180 F   0  0  0  0  0  0  0  0  0  0  0  0
   28.8580   18.3740   26.0880 C   0  0  0  0  0  0  0  0  0  0  0  0
   28.8730   17.6190   24.9770 N   0  0  0  0  0  0  0  0  0  0  0  0
  8  9  1  0
  9 10  1  0
 10 11  1  0
 10 12  2  0
 12 13  1  0
 13 14  1  0
 13  1  1  0
  1  2  2  0
  2  3  1  0
  3 21  1  0
 21 22  1  0
 22 23  2  0
 22 25  1  0
 25 26  2  0
 26 27  1  0
 27 28  2  0
 28 29  1  0
 28 30  1  0
 30 31  2  0
  3  4  2  0
  4  5  1  0
  5  6  2  0
  6  7  1  0
 13 15  1  0
 15 16  1  0
 16 17  2  0
 16 18  2  0
 16  9  1  0
  6  1  1  0
 31 25  1  0
 11 19  1  0
 11 20  1  0
 21 24  1  0
M  END
> <meeko>
{"is_sidechain": false}

> <source_group>
BACE1-476

> <source_system>
BACE1_verubecestat

> <source_run>
alternate_476_seed20260825_ex32

> <source_seed>
20260825

> <vina_pose_rank>
20

> <vina_affinity_kcal_mol>
-6.8209999999999997

> <vina_rmsd_to_crystal_angstrom>
6.0712999999999999

> <minimizedAffinity>
-8.48629

> <CNNscore>
0.1325640231

> <CNNaffinity>
5.6458020210

> <CNN_VS>
0.7484302521

> <CNNaffinity_variance>
0.2418482155

$$$$
