FYN_saracatinib__vina_seed2207_ex32__pose01
     RDKit          3D

 72 77  0  0  0  0  0  0  0  0999 V2000
   -9.1680   13.6600   -0.3380 C   0  0  0  0  0  0  0  0  0  0  0  0
   -8.4020   13.8930   -1.5500 N   0  0  0  0  0  0  0  0  0  0  0  0
   -9.1470   13.4340   -2.7100 C   0  0  0  0  0  0  0  0  0  0  0  0
   -8.3970   13.7210   -4.0180 C   0  0  0  0  0  0  0  0  0  0  0  0
   -8.0750   15.1370   -4.1750 N   0  0  0  0  0  0  0  0  0  0  0  0
   -7.3080   15.3160   -5.4030 C   0  0  0  0  0  0  0  0  0  0  0  0
   -7.9750   16.1540   -6.5070 C   0  0  0  0  0  0  0  0  0  0  0  0
   -9.3650   16.2740   -6.3250 O   0  0  0  0  0  0  0  0  0  0  0  0
  -10.1370   16.0210   -7.4320 C   0  0  0  0  0  0  0  0  0  0  0  0
  -11.2370   16.7270   -7.7220 C   0  0  0  0  0  0  0  0  0  0  0  0
  -11.9780   16.4550   -8.8060 C   0  0  0  0  0  0  0  0  0  0  0  0
  -11.6710   15.4500   -9.6730 C   0  0  0  0  0  0  0  0  0  0  0  0
  -10.5600   14.7130   -9.3940 C   0  0  0  0  0  0  0  0  0  0  0  0
  -10.1450   13.6820  -10.2160 O   0  0  0  0  0  0  0  0  0  0  0  0
   -9.9160   12.3760   -9.7470 C   0  0  0  0  0  0  0  0  0  0  0  0
  -11.0910   11.7960   -8.9580 C   0  0  0  0  0  0  0  0  0  0  0  0
  -10.9510   10.2870   -8.7890 C   0  0  0  0  0  0  0  0  0  0  0  0
  -10.8270    9.6530  -10.0390 O   0  0  0  0  0  0  0  0  0  0  0  0
   -9.6310   10.0340  -10.6630 C   0  0  0  0  0  0  0  0  0  0  0  0
   -9.6770   11.5200  -11.0020 C   0  0  0  0  0  0  0  0  0  0  0  0
   -9.8400   15.0300   -8.2930 C   0  0  0  0  0  0  0  0  0  0  0  0
  -12.5100   15.2860  -10.7370 C   0  0  0  0  0  0  0  0  0  0  0  0
  -12.5470   14.4670  -11.7220 N   0  0  0  0  0  0  0  0  0  0  0  0
  -13.3980   14.0660  -12.5910 C   0  0  0  0  0  0  0  0  0  0  0  0
  -14.1100   12.9250  -12.3690 C   0  0  0  0  0  0  0  0  0  0  0  0
  -13.9470   11.9380  -10.9450 Cl  0  0  0  0  0  0  0  0  0  0  0  0
  -15.0230   12.4840  -13.2570 C   0  0  0  0  0  0  0  0  0  0  0  0
  -15.2650   13.1410  -14.4000 C   0  0  0  0  0  0  0  0  0  0  0  0
  -14.5690   14.2570  -14.6320 C   0  0  0  0  0  0  0  0  0  0  0  0
  -13.6620   14.7040  -13.7540 C   0  0  0  0  0  0  0  0  0  0  0  0
  -13.1510   15.7430  -14.1780 O   0  0  0  0  0  0  0  0  0  0  0  0
  -13.6840   16.0160  -15.4740 C   0  0  0  0  0  0  0  0  0  0  0  0
  -14.6530   14.9850  -15.6200 O   0  0  0  0  0  0  0  0  0  0  0  0
  -13.5090   16.0750  -10.8290 N   0  0  0  0  0  0  0  0  0  0  0  0
  -13.7070   16.9750   -9.9670 C   0  0  0  0  0  0  0  0  0  0  0  0
  -12.9890   17.2030   -8.9590 N   0  0  0  0  0  0  0  0  0  0  0  0
   -7.3210   15.5630   -3.0060 C   0  0  0  0  0  0  0  0  0  0  0  0
   -8.0940   15.3040   -1.6990 C   0  0  0  0  0  0  0  0  0  0  0  0
   -8.5335   13.8530    0.5396 H   0  0  0  0  0  0  0  0  0  0  0  0
  -10.0367   14.3345   -0.3179 H   0  0  0  0  0  0  0  0  0  0  0  0
   -9.5139   12.6160   -0.3179 H   0  0  0  0  0  0  0  0  0  0  0  0
   -9.3092   12.3495   -2.6229 H   0  0  0  0  0  0  0  0  0  0  0  0
  -10.1041   13.9754   -2.7383 H   0  0  0  0  0  0  0  0  0  0  0  0
   -7.4611   13.1431   -4.0229 H   0  0  0  0  0  0  0  0  0  0  0  0
   -9.0533   13.4314   -4.8519 H   0  0  0  0  0  0  0  0  0  0  0  0
   -6.3595   15.8057   -5.1374 H   0  0  0  0  0  0  0  0  0  0  0  0
   -7.1951   14.3077   -5.8279 H   0  0  0  0  0  0  0  0  0  0  0  0
   -7.5304   17.1601   -6.5038 H   0  0  0  0  0  0  0  0  0  0  0  0
   -7.8058   15.6409   -7.4652 H   0  0  0  0  0  0  0  0  0  0  0  0
  -11.5397   17.5486   -7.0561 H   0  0  0  0  0  0  0  0  0  0  0  0
   -9.0642   12.3839   -9.0510 H   0  0  0  0  0  0  0  0  0  0  0  0
  -11.1232   12.2668   -7.9644 H   0  0  0  0  0  0  0  0  0  0  0  0
  -12.0180   11.9995   -9.5140 H   0  0  0  0  0  0  0  0  0  0  0  0
  -10.0562   10.0732   -8.1860 H   0  0  0  0  0  0  0  0  0  0  0  0
  -11.8517    9.9036   -8.2873 H   0  0  0  0  0  0  0  0  0  0  0  0
   -8.7871    9.8400   -9.9847 H   0  0  0  0  0  0  0  0  0  0  0  0
   -9.5029    9.4537  -11.5886 H   0  0  0  0  0  0  0  0  0  0  0  0
   -8.7195   11.8127  -11.4576 H   0  0  0  0  0  0  0  0  0  0  0  0
  -10.5101   11.6897  -11.6999 H   0  0  0  0  0  0  0  0  0  0  0  0
   -8.9413   14.4306   -8.0853 H   0  0  0  0  0  0  0  0  0  0  0  0
  -11.8902   15.9732  -11.3317 H   0  0  0  0  0  0  0  0  0  0  0  0
  -11.6230   13.9820  -11.8700 H   0  0  0  0  0  0  0  0  0  0  0  0
  -15.5830   11.5628  -13.0385 H   0  0  0  0  0  0  0  0  0  0  0  0
  -16.0102   12.7741  -15.1211 H   0  0  0  0  0  0  0  0  0  0  0  0
  -14.1509   17.0113  -15.5123 H   0  0  0  0  0  0  0  0  0  0  0  0
  -12.9261   16.0276  -16.2712 H   0  0  0  0  0  0  0  0  0  0  0  0
  -14.5874   17.6189  -10.1097 H   0  0  0  0  0  0  0  0  0  0  0  0
  -13.2020   17.9250   -8.3230 H   0  0  0  0  0  0  0  0  0  0  0  0
   -6.3715   15.0085   -2.9736 H   0  0  0  0  0  0  0  0  0  0  0  0
   -7.1449   16.6456   -3.0895 H   0  0  0  0  0  0  0  0  0  0  0  0
   -7.4800   15.6305   -0.8467 H   0  0  0  0  0  0  0  0  0  0  0  0
   -9.0378   15.8682   -1.7312 H   0  0  0  0  0  0  0  0  0  0  0  0
  1  2  1  0
  2  3  1  0
  3  4  1  0
  4  5  1  0
  5  6  1  0
  6  7  1  0
  7  8  1  0
  8  9  1  0
  9 10  2  0
 10 11  1  0
 11 12  2  0
 12 13  1  0
 13 14  1  0
 14 15  1  0
 15 16  1  0
 16 17  1  0
 17 18  1  0
 18 19  1  0
 19 20  1  0
 13 21  2  0
 12 22  1  0
 22 23  1  0
 23 24  1  0
 24 25  2  0
 25 26  1  0
 25 27  1  0
 27 28  2  0
 28 29  1  0
 29 30  2  0
 30 31  1  0
 31 32  1  0
 32 33  1  0
 22 34  1  0
 34 35  2  0
 35 36  1  0
  5 37  1  0
 37 38  1  0
 38  2  1  0
 21  9  1  0
 30 24  1  0
 36 11  1  0
 20 15  1  0
 33 29  1  0
  1 39  1  0
  1 40  1  0
  1 41  1  0
  3 42  1  0
  3 43  1  0
  4 44  1  0
  4 45  1  0
  6 46  1  0
  6 47  1  0
  7 48  1  0
  7 49  1  0
 10 50  1  0
 15 51  1  0
 16 52  1  0
 16 53  1  0
 17 54  1  0
 17 55  1  0
 19 56  1  0
 19 57  1  0
 20 58  1  0
 20 59  1  0
 21 60  1  0
 22 61  1  0
 23 62  1  0
 27 63  1  0
 28 64  1  0
 32 65  1  0
 32 66  1  0
 35 67  1  0
 36 68  1  0
 37 69  1  0
 37 70  1  0
 38 71  1  0
 38 72  1  0
M  END
>  <meeko>  (1)
{"is_sidechain": false}

>  <source_group>  (1)
FYN canonical

>  <source_system>  (1)
FYN_saracatinib

>  <source_run>  (1)
vina_seed2207_ex32

>  <source_seed>  (1)
2207

>  <vina_pose_rank>  (1)
1

>  <vina_affinity_kcal_mol>  (1)
-9.1419999999999995

>  <vina_rmsd_to_crystal_angstrom>  (1)
1.7567999999999999

$$$$
FYN_saracatinib__vina_seed2207_ex32__pose02
     RDKit          3D

 72 77  0  0  0  0  0  0  0  0999 V2000
   -9.3540   13.7350   -0.1070 C   0  0  0  0  0  0  0  0  0  0  0  0
   -8.5770   13.8650   -1.3270 N   0  0  0  0  0  0  0  0  0  0  0  0
   -9.3380   13.3700   -2.4610 C   0  0  0  0  0  0  0  0  0  0  0  0
   -8.5750   13.5490   -3.7810 C   0  0  0  0  0  0  0  0  0  0  0  0
   -8.1940   14.9380   -4.0190 N   0  0  0  0  0  0  0  0  0  0  0  0
   -7.4170   15.0140   -5.2520 C   0  0  0  0  0  0  0  0  0  0  0  0
   -7.9620   15.9490   -6.3440 C   0  0  0  0  0  0  0  0  0  0  0  0
   -9.3470   16.1730   -6.2190 O   0  0  0  0  0  0  0  0  0  0  0  0
  -10.0930   15.9530   -7.3510 C   0  0  0  0  0  0  0  0  0  0  0  0
  -11.1940   16.6580   -7.6380 C   0  0  0  0  0  0  0  0  0  0  0  0
  -11.9100   16.4190   -8.7460 C   0  0  0  0  0  0  0  0  0  0  0  0
  -11.5740   15.4500   -9.6430 C   0  0  0  0  0  0  0  0  0  0  0  0
  -10.4600   14.7150   -9.3680 C   0  0  0  0  0  0  0  0  0  0  0  0
  -10.0170   13.7200  -10.2190 O   0  0  0  0  0  0  0  0  0  0  0  0
   -9.8810   12.3780   -9.8190 C   0  0  0  0  0  0  0  0  0  0  0  0
  -10.9640   11.9200   -8.8410 C   0  0  0  0  0  0  0  0  0  0  0  0
  -10.9940   10.4000   -8.7250 C   0  0  0  0  0  0  0  0  0  0  0  0
  -11.1760    9.8040   -9.9860 O   0  0  0  0  0  0  0  0  0  0  0  0
  -10.0700   10.0560  -10.8090 C   0  0  0  0  0  0  0  0  0  0  0  0
   -9.9800   11.5490  -11.1100 C   0  0  0  0  0  0  0  0  0  0  0  0
   -9.7670   14.9980   -8.2410 C   0  0  0  0  0  0  0  0  0  0  0  0
  -12.3880   15.3170  -10.7290 C   0  0  0  0  0  0  0  0  0  0  0  0
  -12.3950   14.5350  -11.7450 N   0  0  0  0  0  0  0  0  0  0  0  0
  -13.2500   13.8510  -12.4090 C   0  0  0  0  0  0  0  0  0  0  0  0
  -13.6910   14.3020  -13.6180 C   0  0  0  0  0  0  0  0  0  0  0  0
  -13.1600   15.7870  -14.3550 Cl  0  0  0  0  0  0  0  0  0  0  0  0
  -14.5790   13.5980  -14.3470 C   0  0  0  0  0  0  0  0  0  0  0  0
  -15.0760   12.4310  -13.9140 C   0  0  0  0  0  0  0  0  0  0  0  0
  -14.6560   11.9810  -12.7290 C   0  0  0  0  0  0  0  0  0  0  0  0
  -13.7720   12.6730  -11.9980 C   0  0  0  0  0  0  0  0  0  0  0  0
  -13.5360   12.0670  -10.9510 O   0  0  0  0  0  0  0  0  0  0  0  0
  -14.3560   10.9000  -10.9050 C   0  0  0  0  0  0  0  0  0  0  0  0
  -15.0020   10.9400  -12.1720 O   0  0  0  0  0  0  0  0  0  0  0  0
  -13.3940   16.0980  -10.8130 N   0  0  0  0  0  0  0  0  0  0  0  0
  -13.6200   16.9640   -9.9230 C   0  0  0  0  0  0  0  0  0  0  0  0
  -12.9260   17.1620   -8.8920 N   0  0  0  0  0  0  0  0  0  0  0  0
   -7.4250   15.4010   -2.8730 C   0  0  0  0  0  0  0  0  0  0  0  0
   -8.2100   15.2500   -1.5560 C   0  0  0  0  0  0  0  0  0  0  0  0
   -8.6909   13.8459    0.7636 H   0  0  0  0  0  0  0  0  0  0  0  0
  -10.1280   14.5161   -0.0803 H   0  0  0  0  0  0  0  0  0  0  0  0
   -9.8316   12.7445   -0.0803 H   0  0  0  0  0  0  0  0  0  0  0  0
   -9.5447   12.3000   -2.3114 H   0  0  0  0  0  0  0  0  0  0  0  0
  -10.2719   13.9478   -2.5247 H   0  0  0  0  0  0  0  0  0  0  0  0
   -7.6641   12.9333   -3.7489 H   0  0  0  0  0  0  0  0  0  0  0  0
   -9.2420   13.2391   -4.5989 H   0  0  0  0  0  0  0  0  0  0  0  0
   -6.4056   15.3583   -4.9901 H   0  0  0  0  0  0  0  0  0  0  0  0
   -7.4548   14.0036   -5.6853 H   0  0  0  0  0  0  0  0  0  0  0  0
   -7.4405   16.9150   -6.2741 H   0  0  0  0  0  0  0  0  0  0  0  0
   -7.7876   15.4653   -7.3164 H   0  0  0  0  0  0  0  0  0  0  0  0
  -11.5188   17.4516   -6.9490 H   0  0  0  0  0  0  0  0  0  0  0  0
   -8.9266   12.2515   -9.2869 H   0  0  0  0  0  0  0  0  0  0  0  0
  -10.7587   12.3516   -7.8503 H   0  0  0  0  0  0  0  0  0  0  0  0
  -11.9400   12.2603   -9.2172 H   0  0  0  0  0  0  0  0  0  0  0  0
  -10.0423   10.0526   -8.2964 H   0  0  0  0  0  0  0  0  0  0  0  0
  -11.8348   10.1135   -8.0762 H   0  0  0  0  0  0  0  0  0  0  0  0
   -9.1522    9.7306  -10.2973 H   0  0  0  0  0  0  0  0  0  0  0  0
  -10.1848    9.5014  -11.7520 H   0  0  0  0  0  0  0  0  0  0  0  0
   -9.0874   11.7367  -11.7249 H   0  0  0  0  0  0  0  0  0  0  0  0
  -10.8933   11.8495  -11.6445 H   0  0  0  0  0  0  0  0  0  0  0  0
   -8.8664   14.4005   -8.0363 H   0  0  0  0  0  0  0  0  0  0  0  0
  -11.7641   16.0329  -11.2843 H   0  0  0  0  0  0  0  0  0  0  0  0
  -11.4340   14.4140  -12.1590 H   0  0  0  0  0  0  0  0  0  0  0  0
  -14.9041   13.9908  -15.3217 H   0  0  0  0  0  0  0  0  0  0  0  0
  -15.8038   11.8642  -14.5133 H   0  0  0  0  0  0  0  0  0  0  0  0
  -13.7488    9.9894  -10.7949 H   0  0  0  0  0  0  0  0  0  0  0  0
  -15.0521   10.8813  -10.0535 H   0  0  0  0  0  0  0  0  0  0  0  0
  -14.5040   17.6039  -10.0611 H   0  0  0  0  0  0  0  0  0  0  0  0
  -13.1600   17.8570   -8.2350 H   0  0  0  0  0  0  0  0  0  0  0  0
   -6.4988   14.8116   -2.8046 H   0  0  0  0  0  0  0  0  0  0  0  0
   -7.2054   16.4690   -3.0186 H   0  0  0  0  0  0  0  0  0  0  0  0
   -7.5839   15.5992   -0.7217 H   0  0  0  0  0  0  0  0  0  0  0  0
   -9.1293   15.8501   -1.6244 H   0  0  0  0  0  0  0  0  0  0  0  0
  1  2  1  0
  2  3  1  0
  3  4  1  0
  4  5  1  0
  5  6  1  0
  6  7  1  0
  7  8  1  0
  8  9  1  0
  9 10  2  0
 10 11  1  0
 11 12  2  0
 12 13  1  0
 13 14  1  0
 14 15  1  0
 15 16  1  0
 16 17  1  0
 17 18  1  0
 18 19  1  0
 19 20  1  0
 13 21  2  0
 12 22  1  0
 22 23  1  0
 23 24  1  0
 24 25  2  0
 25 26  1  0
 25 27  1  0
 27 28  2  0
 28 29  1  0
 29 30  2  0
 30 31  1  0
 31 32  1  0
 32 33  1  0
 22 34  1  0
 34 35  2  0
 35 36  1  0
  5 37  1  0
 37 38  1  0
 38  2  1  0
 21  9  1  0
 30 24  1  0
 36 11  1  0
 20 15  1  0
 33 29  1  0
  1 39  1  0
  1 40  1  0
  1 41  1  0
  3 42  1  0
  3 43  1  0
  4 44  1  0
  4 45  1  0
  6 46  1  0
  6 47  1  0
  7 48  1  0
  7 49  1  0
 10 50  1  0
 15 51  1  0
 16 52  1  0
 16 53  1  0
 17 54  1  0
 17 55  1  0
 19 56  1  0
 19 57  1  0
 20 58  1  0
 20 59  1  0
 21 60  1  0
 22 61  1  0
 23 62  1  0
 27 63  1  0
 28 64  1  0
 32 65  1  0
 32 66  1  0
 35 67  1  0
 36 68  1  0
 37 69  1  0
 37 70  1  0
 38 71  1  0
 38 72  1  0
M  END
>  <meeko>  (2)
{"is_sidechain": false}

>  <source_group>  (2)
FYN canonical

>  <source_system>  (2)
FYN_saracatinib

>  <source_run>  (2)
vina_seed2207_ex32

>  <source_seed>  (2)
2207

>  <vina_pose_rank>  (2)
2

>  <vina_affinity_kcal_mol>  (2)
-9.1140000000000008

>  <vina_rmsd_to_crystal_angstrom>  (2)
2.7553000000000001

$$$$
FYN_saracatinib__vina_seed2207_ex32__pose03
     RDKit          3D

 72 77  0  0  0  0  0  0  0  0999 V2000
   -7.4920    9.6320   -7.8010 C   0  0  0  0  0  0  0  0  0  0  0  0
   -7.6930   11.0250   -7.4390 N   0  0  0  0  0  0  0  0  0  0  0  0
   -8.8100   11.1470   -6.5190 C   0  0  0  0  0  0  0  0  0  0  0  0
   -9.0150   12.5990   -6.0620 C   0  0  0  0  0  0  0  0  0  0  0  0
   -7.8150   13.1640   -5.4510 N   0  0  0  0  0  0  0  0  0  0  0  0
   -8.0690   14.5590   -5.1080 C   0  0  0  0  0  0  0  0  0  0  0  0
   -8.1250   15.5500   -6.2820 C   0  0  0  0  0  0  0  0  0  0  0  0
   -9.3460   16.2480   -6.3380 O   0  0  0  0  0  0  0  0  0  0  0  0
  -10.1260   16.0030   -7.4420 C   0  0  0  0  0  0  0  0  0  0  0  0
  -11.2380   16.6970   -7.7090 C   0  0  0  0  0  0  0  0  0  0  0  0
  -11.9870   16.4330   -8.7890 C   0  0  0  0  0  0  0  0  0  0  0  0
  -11.6740   15.4470   -9.6760 C   0  0  0  0  0  0  0  0  0  0  0  0
  -10.5490   14.7230   -9.4210 C   0  0  0  0  0  0  0  0  0  0  0  0
  -10.1270   13.7120  -10.2650 O   0  0  0  0  0  0  0  0  0  0  0  0
  -10.0730   12.3620   -9.8730 C   0  0  0  0  0  0  0  0  0  0  0  0
  -11.2780   11.9200   -9.0420 C   0  0  0  0  0  0  0  0  0  0  0  0
  -11.3570   10.3990   -8.9540 C   0  0  0  0  0  0  0  0  0  0  0  0
  -11.3970    9.8240  -10.2380 O   0  0  0  0  0  0  0  0  0  0  0  0
  -10.1920   10.0590  -10.9150 C   0  0  0  0  0  0  0  0  0  0  0  0
  -10.0310   11.5520  -11.1790 C   0  0  0  0  0  0  0  0  0  0  0  0
   -9.8230   15.0320   -8.3230 C   0  0  0  0  0  0  0  0  0  0  0  0
  -12.5200   15.2890  -10.7340 C   0  0  0  0  0  0  0  0  0  0  0  0
  -12.5560   14.4870  -11.7340 N   0  0  0  0  0  0  0  0  0  0  0  0
  -13.4010   14.1100  -12.6180 C   0  0  0  0  0  0  0  0  0  0  0  0
  -14.1380   12.9810  -12.4180 C   0  0  0  0  0  0  0  0  0  0  0  0
  -14.0150   11.9780  -11.0010 Cl  0  0  0  0  0  0  0  0  0  0  0  0
  -15.0450   12.5660  -13.3240 C   0  0  0  0  0  0  0  0  0  0  0  0
  -15.2570   13.2380  -14.4640 C   0  0  0  0  0  0  0  0  0  0  0  0
  -14.5380   14.3430  -14.6750 C   0  0  0  0  0  0  0  0  0  0  0  0
  -13.6350   14.7640  -13.7790 C   0  0  0  0  0  0  0  0  0  0  0  0
  -13.0980   15.7960  -14.1860 O   0  0  0  0  0  0  0  0  0  0  0  0
  -13.6060   16.0920  -15.4870 C   0  0  0  0  0  0  0  0  0  0  0  0
  -14.5920   15.0810  -15.6580 O   0  0  0  0  0  0  0  0  0  0  0  0
  -13.5320   16.0640  -10.8030 N   0  0  0  0  0  0  0  0  0  0  0  0
  -13.7350   16.9470   -9.9240 C   0  0  0  0  0  0  0  0  0  0  0  0
  -13.0100   17.1690   -8.9190 N   0  0  0  0  0  0  0  0  0  0  0  0
   -6.7190   13.0370   -6.4000 C   0  0  0  0  0  0  0  0  0  0  0  0
   -6.4970   11.5730   -6.8270 C   0  0  0  0  0  0  0  0  0  0  0  0
   -7.4044    9.0248   -6.8879 H   0  0  0  0  0  0  0  0  0  0  0  0
   -8.3487    9.2801   -8.3945 H   0  0  0  0  0  0  0  0  0  0  0  0
   -6.5708    9.5366   -8.3945 H   0  0  0  0  0  0  0  0  0  0  0  0
   -9.7248   10.7990   -7.0211 H   0  0  0  0  0  0  0  0  0  0  0  0
   -8.5904   10.5362   -5.6309 H   0  0  0  0  0  0  0  0  0  0  0  0
   -9.2877   13.2093   -6.9356 H   0  0  0  0  0  0  0  0  0  0  0  0
   -9.8117   12.6030   -5.3036 H   0  0  0  0  0  0  0  0  0  0  0  0
   -9.0353   14.6048   -4.5845 H   0  0  0  0  0  0  0  0  0  0  0  0
   -7.2077   14.8730   -4.5001 H   0  0  0  0  0  0  0  0  0  0  0  0
   -7.3074   16.2772   -6.1696 H   0  0  0  0  0  0  0  0  0  0  0  0
   -8.0261   14.9725   -7.2130 H   0  0  0  0  0  0  0  0  0  0  0  0
  -11.5450   17.5031   -7.0264 H   0  0  0  0  0  0  0  0  0  0  0  0
   -9.1944   12.2040   -9.2302 H   0  0  0  0  0  0  0  0  0  0  0  0
  -11.1858   12.3342   -8.0271 H   0  0  0  0  0  0  0  0  0  0  0  0
  -12.1925   12.2895   -9.5290 H   0  0  0  0  0  0  0  0  0  0  0  0
  -10.4732   10.0227   -8.4180 H   0  0  0  0  0  0  0  0  0  0  0  0
  -12.2770   10.1249   -8.4169 H   0  0  0  0  0  0  0  0  0  0  0  0
   -9.3521    9.7043  -10.2996 H   0  0  0  0  0  0  0  0  0  0  0  0
  -10.2026    9.5196  -11.8736 H   0  0  0  0  0  0  0  0  0  0  0  0
   -9.0652   11.7251  -11.6762 H   0  0  0  0  0  0  0  0  0  0  0  0
  -10.8641   11.8818  -11.8170 H   0  0  0  0  0  0  0  0  0  0  0  0
   -8.9130   14.4433   -8.1351 H   0  0  0  0  0  0  0  0  0  0  0  0
  -11.9161   15.9955  -11.3224 H   0  0  0  0  0  0  0  0  0  0  0  0
  -11.6360   13.9930  -11.8780 H   0  0  0  0  0  0  0  0  0  0  0  0
  -15.6255   11.6535  -13.1230 H   0  0  0  0  0  0  0  0  0  0  0  0
  -15.9974   12.8913  -15.2000 H   0  0  0  0  0  0  0  0  0  0  0  0
  -14.0534   17.0963  -15.5222 H   0  0  0  0  0  0  0  0  0  0  0  0
  -12.8360   16.0972  -16.2726 H   0  0  0  0  0  0  0  0  0  0  0  0
  -14.6262   17.5799  -10.0474 H   0  0  0  0  0  0  0  0  0  0  0  0
  -13.2270   17.8760   -8.2690 H   0  0  0  0  0  0  0  0  0  0  0  0
   -6.9499   13.6369   -7.2926 H   0  0  0  0  0  0  0  0  0  0  0  0
   -5.8005   13.3929   -5.9105 H   0  0  0  0  0  0  0  0  0  0  0  0
   -5.6701   11.5305   -7.5512 H   0  0  0  0  0  0  0  0  0  0  0  0
   -6.2559   10.9790   -5.9331 H   0  0  0  0  0  0  0  0  0  0  0  0
  1  2  1  0
  2  3  1  0
  3  4  1  0
  4  5  1  0
  5  6  1  0
  6  7  1  0
  7  8  1  0
  8  9  1  0
  9 10  2  0
 10 11  1  0
 11 12  2  0
 12 13  1  0
 13 14  1  0
 14 15  1  0
 15 16  1  0
 16 17  1  0
 17 18  1  0
 18 19  1  0
 19 20  1  0
 13 21  2  0
 12 22  1  0
 22 23  1  0
 23 24  1  0
 24 25  2  0
 25 26  1  0
 25 27  1  0
 27 28  2  0
 28 29  1  0
 29 30  2  0
 30 31  1  0
 31 32  1  0
 32 33  1  0
 22 34  1  0
 34 35  2  0
 35 36  1  0
  5 37  1  0
 37 38  1  0
 38  2  1  0
 21  9  1  0
 30 24  1  0
 36 11  1  0
 20 15  1  0
 33 29  1  0
  1 39  1  0
  1 40  1  0
  1 41  1  0
  3 42  1  0
  3 43  1  0
  4 44  1  0
  4 45  1  0
  6 46  1  0
  6 47  1  0
  7 48  1  0
  7 49  1  0
 10 50  1  0
 15 51  1  0
 16 52  1  0
 16 53  1  0
 17 54  1  0
 17 55  1  0
 19 56  1  0
 19 57  1  0
 20 58  1  0
 20 59  1  0
 21 60  1  0
 22 61  1  0
 23 62  1  0
 27 63  1  0
 28 64  1  0
 32 65  1  0
 32 66  1  0
 35 67  1  0
 36 68  1  0
 37 69  1  0
 37 70  1  0
 38 71  1  0
 38 72  1  0
M  END
>  <meeko>  (3)
{"is_sidechain": false}

>  <source_group>  (3)
FYN canonical

>  <source_system>  (3)
FYN_saracatinib

>  <source_run>  (3)
vina_seed2207_ex32

>  <source_seed>  (3)
2207

>  <vina_pose_rank>  (3)
3

>  <vina_affinity_kcal_mol>  (3)
-9

>  <vina_rmsd_to_crystal_angstrom>  (3)
3.1341000000000001

$$$$
FYN_saracatinib__vina_seed2207_ex32__pose04
     RDKit          3D

 72 77  0  0  0  0  0  0  0  0999 V2000
   -8.3520   18.6580   -4.4670 C   0  0  0  0  0  0  0  0  0  0  0  0
   -7.8800   17.3310   -4.8220 N   0  0  0  0  0  0  0  0  0  0  0  0
   -8.3710   16.3530   -3.8670 C   0  0  0  0  0  0  0  0  0  0  0  0
   -7.9460   14.9260   -4.2440 C   0  0  0  0  0  0  0  0  0  0  0  0
   -8.3780   14.5540   -5.5880 N   0  0  0  0  0  0  0  0  0  0  0  0
   -7.8800   13.2180   -5.8950 C   0  0  0  0  0  0  0  0  0  0  0  0
   -8.8850   12.2480   -6.5390 C   0  0  0  0  0  0  0  0  0  0  0  0
  -10.2070   12.7250   -6.4790 O   0  0  0  0  0  0  0  0  0  0  0  0
  -10.7500   13.1340   -7.6730 C   0  0  0  0  0  0  0  0  0  0  0  0
  -11.2120   14.3740   -7.8690 C   0  0  0  0  0  0  0  0  0  0  0  0
  -11.7450   14.7470   -9.0410 C   0  0  0  0  0  0  0  0  0  0  0  0
  -11.8580   13.8960  -10.1000 C   0  0  0  0  0  0  0  0  0  0  0  0
  -11.4010   12.6260   -9.9210 C   0  0  0  0  0  0  0  0  0  0  0  0
  -11.4490   11.6860  -10.9340 O   0  0  0  0  0  0  0  0  0  0  0  0
  -10.8560   10.4140  -10.8250 C   0  0  0  0  0  0  0  0  0  0  0  0
  -11.8530    9.2630  -10.9580 C   0  0  0  0  0  0  0  0  0  0  0  0
  -11.1360    7.9390  -11.1980 C   0  0  0  0  0  0  0  0  0  0  0  0
  -10.3080    8.0150  -12.3320 O   0  0  0  0  0  0  0  0  0  0  0  0
   -9.2650    8.9270  -12.1140 C   0  0  0  0  0  0  0  0  0  0  0  0
   -9.8330   10.3350  -11.9700 C   0  0  0  0  0  0  0  0  0  0  0  0
  -10.8650   12.3000   -8.7230 C   0  0  0  0  0  0  0  0  0  0  0  0
  -12.4160   14.4080  -11.2350 C   0  0  0  0  0  0  0  0  0  0  0  0
  -12.6870   13.9220  -12.3900 N   0  0  0  0  0  0  0  0  0  0  0  0
  -13.6900   13.8650  -13.1840 C   0  0  0  0  0  0  0  0  0  0  0  0
  -14.6580   12.9240  -12.9900 C   0  0  0  0  0  0  0  0  0  0  0  0
  -14.6360   11.7570  -11.6990 Cl  0  0  0  0  0  0  0  0  0  0  0  0
  -15.7330   12.8480  -13.7990 C   0  0  0  0  0  0  0  0  0  0  0  0
  -15.8930   13.6830  -14.8350 C   0  0  0  0  0  0  0  0  0  0  0  0
  -14.9490   14.6050  -15.0390 C   0  0  0  0  0  0  0  0  0  0  0  0
  -13.8790   14.6900  -14.2380 C   0  0  0  0  0  0  0  0  0  0  0  0
  -13.1500   15.6090  -14.6180 O   0  0  0  0  0  0  0  0  0  0  0  0
  -13.7050   16.1710  -15.8060 C   0  0  0  0  0  0  0  0  0  0  0  0
  -14.9250   15.4480  -15.9340 O   0  0  0  0  0  0  0  0  0  0  0  0
  -12.7920   15.6270  -11.2110 N   0  0  0  0  0  0  0  0  0  0  0  0
  -12.6440   16.3320  -10.1750 C   0  0  0  0  0  0  0  0  0  0  0  0
  -12.1390   15.9500   -9.0880 N   0  0  0  0  0  0  0  0  0  0  0  0
   -7.8630   15.5450   -6.5210 C   0  0  0  0  0  0  0  0  0  0  0  0
   -8.3220   16.9700   -6.1570 C   0  0  0  0  0  0  0  0  0  0  0  0
   -8.3862   18.7542   -3.3717 H   0  0  0  0  0  0  0  0  0  0  0  0
   -7.6674   19.4134   -4.8802 H   0  0  0  0  0  0  0  0  0  0  0  0
   -9.3598   18.8114   -4.8802 H   0  0  0  0  0  0  0  0  0  0  0  0
   -7.9684   16.5935   -2.8720 H   0  0  0  0  0  0  0  0  0  0  0  0
   -9.4702   16.3946   -3.8688 H   0  0  0  0  0  0  0  0  0  0  0  0
   -6.8492   14.8592   -4.1942 H   0  0  0  0  0  0  0  0  0  0  0  0
   -8.4242   14.2348   -3.5344 H   0  0  0  0  0  0  0  0  0  0  0  0
   -7.0303   13.3273   -6.5850 H   0  0  0  0  0  0  0  0  0  0  0  0
   -7.6215   12.7708   -4.9238 H   0  0  0  0  0  0  0  0  0  0  0  0
   -8.6095   12.1034   -7.5941 H   0  0  0  0  0  0  0  0  0  0  0  0
   -8.8445   11.3028   -5.9777 H   0  0  0  0  0  0  0  0  0  0  0  0
  -11.1531   15.1049   -7.0490 H   0  0  0  0  0  0  0  0  0  0  0  0
  -10.4077   10.3050   -9.8264 H   0  0  0  0  0  0  0  0  0  0  0  0
  -12.4421    9.1895  -10.0320 H   0  0  0  0  0  0  0  0  0  0  0  0
  -12.5076    9.4662  -11.8184 H   0  0  0  0  0  0  0  0  0  0  0  0
  -10.5209    7.6980  -10.3185 H   0  0  0  0  0  0  0  0  0  0  0  0
  -11.8904    7.1562  -11.3656 H   0  0  0  0  0  0  0  0  0  0  0  0
   -8.7273    8.6541  -11.1940 H   0  0  0  0  0  0  0  0  0  0  0  0
   -8.5733    8.8996  -12.9689 H   0  0  0  0  0  0  0  0  0  0  0  0
   -9.0091   11.0336  -11.7623 H   0  0  0  0  0  0  0  0  0  0  0  0
  -10.3429   10.5997  -12.9081 H   0  0  0  0  0  0  0  0  0  0  0  0
  -10.4938   11.2723   -8.5968 H   0  0  0  0  0  0  0  0  0  0  0  0
  -11.4183   14.7021  -11.5928 H   0  0  0  0  0  0  0  0  0  0  0  0
  -11.8590   13.4290  -12.8170 H   0  0  0  0  0  0  0  0  0  0  0  0
  -16.4979   12.0819  -13.6043 H   0  0  0  0  0  0  0  0  0  0  0  0
  -16.7709   13.6113  -15.4939 H   0  0  0  0  0  0  0  0  0  0  0  0
  -13.8897   17.2491  -15.6896 H   0  0  0  0  0  0  0  0  0  0  0  0
  -13.0473   16.0899  -16.6840 H   0  0  0  0  0  0  0  0  0  0  0  0
  -12.9879   17.3756  -10.2271 H   0  0  0  0  0  0  0  0  0  0  0  0
  -12.0540   16.5540   -8.3140 H   0  0  0  0  0  0  0  0  0  0  0  0
   -6.7636   15.5106   -6.5054 H   0  0  0  0  0  0  0  0  0  0  0  0
   -8.2531   15.3064   -7.5215 H   0  0  0  0  0  0  0  0  0  0  0  0
   -7.8981   17.6811   -6.8814 H   0  0  0  0  0  0  0  0  0  0  0  0
   -9.4212   17.0032   -6.1845 H   0  0  0  0  0  0  0  0  0  0  0  0
  1  2  1  0
  2  3  1  0
  3  4  1  0
  4  5  1  0
  5  6  1  0
  6  7  1  0
  7  8  1  0
  8  9  1  0
  9 10  2  0
 10 11  1  0
 11 12  2  0
 12 13  1  0
 13 14  1  0
 14 15  1  0
 15 16  1  0
 16 17  1  0
 17 18  1  0
 18 19  1  0
 19 20  1  0
 13 21  2  0
 12 22  1  0
 22 23  1  0
 23 24  1  0
 24 25  2  0
 25 26  1  0
 25 27  1  0
 27 28  2  0
 28 29  1  0
 29 30  2  0
 30 31  1  0
 31 32  1  0
 32 33  1  0
 22 34  1  0
 34 35  2  0
 35 36  1  0
  5 37  1  0
 37 38  1  0
 38  2  1  0
 21  9  1  0
 30 24  1  0
 36 11  1  0
 20 15  1  0
 33 29  1  0
  1 39  1  0
  1 40  1  0
  1 41  1  0
  3 42  1  0
  3 43  1  0
  4 44  1  0
  4 45  1  0
  6 46  1  0
  6 47  1  0
  7 48  1  0
  7 49  1  0
 10 50  1  0
 15 51  1  0
 16 52  1  0
 16 53  1  0
 17 54  1  0
 17 55  1  0
 19 56  1  0
 19 57  1  0
 20 58  1  0
 20 59  1  0
 21 60  1  0
 22 61  1  0
 23 62  1  0
 27 63  1  0
 28 64  1  0
 32 65  1  0
 32 66  1  0
 35 67  1  0
 36 68  1  0
 37 69  1  0
 37 70  1  0
 38 71  1  0
 38 72  1  0
M  END
>  <meeko>  (4)
{"is_sidechain": false}

>  <source_group>  (4)
FYN canonical

>  <source_system>  (4)
FYN_saracatinib

>  <source_run>  (4)
vina_seed2207_ex32

>  <source_seed>  (4)
2207

>  <vina_pose_rank>  (4)
4

>  <vina_affinity_kcal_mol>  (4)
-8.9299999999999997

>  <vina_rmsd_to_crystal_angstrom>  (4)
2.7591999999999999

$$$$
FYN_saracatinib__vina_seed2207_ex32__pose05
     RDKit          3D

 72 77  0  0  0  0  0  0  0  0999 V2000
   -9.0340    8.8480   -9.4940 C   0  0  0  0  0  0  0  0  0  0  0  0
   -9.2630   10.2390   -9.1410 N   0  0  0  0  0  0  0  0  0  0  0  0
  -10.4310   10.3530   -8.2860 C   0  0  0  0  0  0  0  0  0  0  0  0
  -10.6690   11.8020   -7.8380 C   0  0  0  0  0  0  0  0  0  0  0  0
   -9.5100   12.3710   -7.1570 N   0  0  0  0  0  0  0  0  0  0  0  0
   -9.7900   13.7640   -6.8260 C   0  0  0  0  0  0  0  0  0  0  0  0
   -9.4500   14.8040   -7.9070 C   0  0  0  0  0  0  0  0  0  0  0  0
  -10.4350   15.8030   -8.0200 O   0  0  0  0  0  0  0  0  0  0  0  0
  -11.3510   15.6290   -9.0290 C   0  0  0  0  0  0  0  0  0  0  0  0
  -12.3860   16.4560   -9.2150 C   0  0  0  0  0  0  0  0  0  0  0  0
  -13.2710   16.2600  -10.2030 C   0  0  0  0  0  0  0  0  0  0  0  0
  -13.1820   15.2140  -11.0720 C   0  0  0  0  0  0  0  0  0  0  0  0
  -12.1400   14.3550  -10.8980 C   0  0  0  0  0  0  0  0  0  0  0  0
  -11.9420   13.2720  -11.7340 O   0  0  0  0  0  0  0  0  0  0  0  0
  -11.9330   11.9420  -11.2720 C   0  0  0  0  0  0  0  0  0  0  0  0
  -13.3230   11.4100  -10.9190 C   0  0  0  0  0  0  0  0  0  0  0  0
  -13.3110    9.8910  -10.7790 C   0  0  0  0  0  0  0  0  0  0  0  0
  -12.8270    9.2840  -11.9520 O   0  0  0  0  0  0  0  0  0  0  0  0
  -11.4780    9.6130  -12.1510 C   0  0  0  0  0  0  0  0  0  0  0  0
  -11.3470   11.1080  -12.4230 C   0  0  0  0  0  0  0  0  0  0  0  0
  -11.2690   14.5990   -9.8920 C   0  0  0  0  0  0  0  0  0  0  0  0
  -14.1480   15.1370  -12.0330 C   0  0  0  0  0  0  0  0  0  0  0  0
  -14.3900   14.3160  -12.9870 N   0  0  0  0  0  0  0  0  0  0  0  0
  -14.7470   14.3680  -14.2150 C   0  0  0  0  0  0  0  0  0  0  0  0
  -13.9940   15.0630  -15.1140 C   0  0  0  0  0  0  0  0  0  0  0  0
  -12.5310   15.9140  -14.7050 Cl  0  0  0  0  0  0  0  0  0  0  0  0
  -14.3350   15.1250  -16.4160 C   0  0  0  0  0  0  0  0  0  0  0  0
  -15.4330   14.5150  -16.8840 C   0  0  0  0  0  0  0  0  0  0  0  0
  -16.1820   13.8350  -16.0130 C   0  0  0  0  0  0  0  0  0  0  0  0
  -15.8500   13.7660  -14.7170 C   0  0  0  0  0  0  0  0  0  0  0  0
  -16.6830   13.0900  -14.1110 O   0  0  0  0  0  0  0  0  0  0  0  0
  -17.7110   12.7080  -15.0240 C   0  0  0  0  0  0  0  0  0  0  0  0
  -17.2190   13.2200  -16.2570 O   0  0  0  0  0  0  0  0  0  0  0  0
  -15.0530   16.0370  -12.0350 N   0  0  0  0  0  0  0  0  0  0  0  0
  -15.0470   16.9650  -11.1800 C   0  0  0  0  0  0  0  0  0  0  0  0
  -14.1990   17.1210  -10.2630 N   0  0  0  0  0  0  0  0  0  0  0  0
   -8.3600   12.2520   -8.0420 C   0  0  0  0  0  0  0  0  0  0  0  0
   -8.1060   10.7910   -8.4600 C   0  0  0  0  0  0  0  0  0  0  0  0
   -8.9353    8.2485   -8.5770 H   0  0  0  0  0  0  0  0  0  0  0  0
   -9.8829    8.4754  -10.0861 H   0  0  0  0  0  0  0  0  0  0  0  0
   -8.1105    8.7672  -10.0861 H   0  0  0  0  0  0  0  0  0  0  0  0
  -11.3139   10.0019   -8.8403 H   0  0  0  0  0  0  0  0  0  0  0  0
  -10.2593    9.7409   -7.3883 H   0  0  0  0  0  0  0  0  0  0  0  0
  -10.8934   12.4135   -8.7244 H   0  0  0  0  0  0  0  0  0  0  0  0
  -11.5083   11.7998   -7.1270 H   0  0  0  0  0  0  0  0  0  0  0  0
  -10.8650   13.8469   -6.6078 H   0  0  0  0  0  0  0  0  0  0  0  0
   -9.1338   14.0005   -5.9754 H   0  0  0  0  0  0  0  0  0  0  0  0
   -8.4921   15.2800   -7.6503 H   0  0  0  0  0  0  0  0  0  0  0  0
   -9.3936   14.2784   -8.8717 H   0  0  0  0  0  0  0  0  0  0  0  0
  -12.5139   17.3166   -8.5419 H   0  0  0  0  0  0  0  0  0  0  0  0
  -11.3467   11.8823  -10.3432 H   0  0  0  0  0  0  0  0  0  0  0  0
  -13.6471   11.8559   -9.9671 H   0  0  0  0  0  0  0  0  0  0  0  0
  -14.0164   11.6805  -11.7289 H   0  0  0  0  0  0  0  0  0  0  0  0
  -12.6630    9.6119   -9.9350 H   0  0  0  0  0  0  0  0  0  0  0  0
  -14.3404    9.5455  -10.6027 H   0  0  0  0  0  0  0  0  0  0  0  0
  -10.9019    9.3535  -11.2506 H   0  0  0  0  0  0  0  0  0  0  0  0
  -11.0898    9.0510  -13.0132 H   0  0  0  0  0  0  0  0  0  0  0  0
  -10.2823   11.3583  -12.5401 H   0  0  0  0  0  0  0  0  0  0  0  0
  -11.9069   11.3430  -13.3402 H   0  0  0  0  0  0  0  0  0  0  0  0
  -10.4277   13.9010   -9.7696 H   0  0  0  0  0  0  0  0  0  0  0  0
  -13.5231   15.7387  -12.7093 H   0  0  0  0  0  0  0  0  0  0  0  0
  -14.2630   13.3130  -12.6890 H   0  0  0  0  0  0  0  0  0  0  0  0
  -13.6970   15.6898  -17.1117 H   0  0  0  0  0  0  0  0  0  0  0  0
  -15.7071   14.5727  -17.9477 H   0  0  0  0  0  0  0  0  0  0  0  0
  -17.8248   11.6146  -15.0626 H   0  0  0  0  0  0  0  0  0  0  0  0
  -18.7074   13.0873  -14.7530 H   0  0  0  0  0  0  0  0  0  0  0  0
  -15.8576   17.7060  -11.2417 H   0  0  0  0  0  0  0  0  0  0  0  0
  -14.2540   17.8710   -9.6270 H   0  0  0  0  0  0  0  0  0  0  0  0
   -8.5421   12.8537   -8.9447 H   0  0  0  0  0  0  0  0  0  0  0  0
   -7.4731   12.6105   -7.4989 H   0  0  0  0  0  0  0  0  0  0  0  0
   -7.2390   10.7553   -9.1361 H   0  0  0  0  0  0  0  0  0  0  0  0
   -7.9126   10.1951   -7.5559 H   0  0  0  0  0  0  0  0  0  0  0  0
  1  2  1  0
  2  3  1  0
  3  4  1  0
  4  5  1  0
  5  6  1  0
  6  7  1  0
  7  8  1  0
  8  9  1  0
  9 10  2  0
 10 11  1  0
 11 12  2  0
 12 13  1  0
 13 14  1  0
 14 15  1  0
 15 16  1  0
 16 17  1  0
 17 18  1  0
 18 19  1  0
 19 20  1  0
 13 21  2  0
 12 22  1  0
 22 23  1  0
 23 24  1  0
 24 25  2  0
 25 26  1  0
 25 27  1  0
 27 28  2  0
 28 29  1  0
 29 30  2  0
 30 31  1  0
 31 32  1  0
 32 33  1  0
 22 34  1  0
 34 35  2  0
 35 36  1  0
  5 37  1  0
 37 38  1  0
 38  2  1  0
 21  9  1  0
 30 24  1  0
 36 11  1  0
 20 15  1  0
 33 29  1  0
  1 39  1  0
  1 40  1  0
  1 41  1  0
  3 42  1  0
  3 43  1  0
  4 44  1  0
  4 45  1  0
  6 46  1  0
  6 47  1  0
  7 48  1  0
  7 49  1  0
 10 50  1  0
 15 51  1  0
 16 52  1  0
 16 53  1  0
 17 54  1  0
 17 55  1  0
 19 56  1  0
 19 57  1  0
 20 58  1  0
 20 59  1  0
 21 60  1  0
 22 61  1  0
 23 62  1  0
 27 63  1  0
 28 64  1  0
 32 65  1  0
 32 66  1  0
 35 67  1  0
 36 68  1  0
 37 69  1  0
 37 70  1  0
 38 71  1  0
 38 72  1  0
M  END
>  <meeko>  (5)
{"is_sidechain": false}

>  <source_group>  (5)
FYN canonical

>  <source_system>  (5)
FYN_saracatinib

>  <source_run>  (5)
vina_seed2207_ex32

>  <source_seed>  (5)
2207

>  <vina_pose_rank>  (5)
5

>  <vina_affinity_kcal_mol>  (5)
-8.8930000000000007

>  <vina_rmsd_to_crystal_angstrom>  (5)
4.5353000000000003

$$$$
FYN_saracatinib__vina_seed2207_ex32__pose06
     RDKit          3D

 72 77  0  0  0  0  0  0  0  0999 V2000
   -7.4970   10.1230   -7.4340 C   0  0  0  0  0  0  0  0  0  0  0  0
   -7.7370   11.5240   -7.1350 N   0  0  0  0  0  0  0  0  0  0  0  0
   -8.8360   11.6550   -6.1950 C   0  0  0  0  0  0  0  0  0  0  0  0
   -9.0800   13.1200   -5.8040 C   0  0  0  0  0  0  0  0  0  0  0  0
   -7.8870   13.7540   -5.2510 N   0  0  0  0  0  0  0  0  0  0  0  0
   -8.1800   15.1550   -4.9700 C   0  0  0  0  0  0  0  0  0  0  0  0
   -8.3780   16.0680   -6.1920 C   0  0  0  0  0  0  0  0  0  0  0  0
   -9.6870   16.5770   -6.2770 O   0  0  0  0  0  0  0  0  0  0  0  0
  -10.3780   16.2630   -7.4220 C   0  0  0  0  0  0  0  0  0  0  0  0
  -11.5020   16.8940   -7.7820 C   0  0  0  0  0  0  0  0  0  0  0  0
  -12.1620   16.5630   -8.9020 C   0  0  0  0  0  0  0  0  0  0  0  0
  -11.7430   15.5710   -9.7360 C   0  0  0  0  0  0  0  0  0  0  0  0
  -10.6050   14.9110   -9.3860 C   0  0  0  0  0  0  0  0  0  0  0  0
  -10.0790   13.9010  -10.1690 O   0  0  0  0  0  0  0  0  0  0  0  0
   -9.9850   12.5660   -9.7330 C   0  0  0  0  0  0  0  0  0  0  0  0
  -11.1960   12.1030   -8.9210 C   0  0  0  0  0  0  0  0  0  0  0  0
  -11.2200   10.5850   -8.7870 C   0  0  0  0  0  0  0  0  0  0  0  0
  -11.2040    9.9700  -10.0530 O   0  0  0  0  0  0  0  0  0  0  0  0
   -9.9900   10.2290  -10.7050 C   0  0  0  0  0  0  0  0  0  0  0  0
   -9.8780   11.7190  -11.0120 C   0  0  0  0  0  0  0  0  0  0  0  0
   -9.9700   15.2850   -8.2510 C   0  0  0  0  0  0  0  0  0  0  0  0
  -12.5080   15.3430  -10.8430 C   0  0  0  0  0  0  0  0  0  0  0  0
  -12.4370   14.5130  -11.8170 N   0  0  0  0  0  0  0  0  0  0  0  0
  -13.2370   13.7950  -12.5120 C   0  0  0  0  0  0  0  0  0  0  0  0
  -13.5890   14.1890  -13.7690 C   0  0  0  0  0  0  0  0  0  0  0  0
  -13.0100   15.6430  -14.5300 Cl  0  0  0  0  0  0  0  0  0  0  0  0
  -14.4180   13.4470  -14.5290 C   0  0  0  0  0  0  0  0  0  0  0  0
  -14.9410   12.2970  -14.0830 C   0  0  0  0  0  0  0  0  0  0  0  0
  -14.6090   11.9030  -12.8500 C   0  0  0  0  0  0  0  0  0  0  0  0
  -13.7840   12.6320  -12.0880 C   0  0  0  0  0  0  0  0  0  0  0  0
  -13.6240   12.0750  -11.0000 O   0  0  0  0  0  0  0  0  0  0  0  0
  -14.4420   10.9060  -10.9630 C   0  0  0  0  0  0  0  0  0  0  0  0
  -14.9920   10.8850  -12.2750 O   0  0  0  0  0  0  0  0  0  0  0  0
  -13.5490   16.0640  -11.0010 N   0  0  0  0  0  0  0  0  0  0  0  0
  -13.8520   16.9590  -10.1640 C   0  0  0  0  0  0  0  0  0  0  0  0
  -13.2090   17.2430   -9.1210 N   0  0  0  0  0  0  0  0  0  0  0  0
   -6.8090   13.6160   -6.2190 C   0  0  0  0  0  0  0  0  0  0  0  0
   -6.5470   12.1420   -6.5800 C   0  0  0  0  0  0  0  0  0  0  0  0
   -7.4004    9.5589   -6.4946 H   0  0  0  0  0  0  0  0  0  0  0  0
   -8.3397    9.7229   -8.0169 H   0  0  0  0  0  0  0  0  0  0  0  0
   -6.5692   10.0262   -8.0169 H   0  0  0  0  0  0  0  0  0  0  0  0
   -9.7497   11.2528   -6.6570 H   0  0  0  0  0  0  0  0  0  0  0  0
   -8.5752   11.0966   -5.2838 H   0  0  0  0  0  0  0  0  0  0  0  0
   -9.3935   13.6771   -6.6992 H   0  0  0  0  0  0  0  0  0  0  0  0
   -9.8586   13.1348   -5.0271 H   0  0  0  0  0  0  0  0  0  0  0  0
   -9.1023   15.1911   -4.3717 H   0  0  0  0  0  0  0  0  0  0  0  0
   -7.2891   15.5435   -4.4548 H   0  0  0  0  0  0  0  0  0  0  0  0
   -7.6754   16.9113   -6.1200 H   0  0  0  0  0  0  0  0  0  0  0  0
   -8.1943   15.4649   -7.0934 H   0  0  0  0  0  0  0  0  0  0  0  0
  -11.8931   17.7016   -7.1457 H   0  0  0  0  0  0  0  0  0  0  0  0
   -9.1191   12.4617   -9.0626 H   0  0  0  0  0  0  0  0  0  0  0  0
  -11.1483   12.5514   -7.9177 H   0  0  0  0  0  0  0  0  0  0  0  0
  -12.1096   12.4217   -9.4443 H   0  0  0  0  0  0  0  0  0  0  0  0
  -10.3373   10.2595   -8.2170 H   0  0  0  0  0  0  0  0  0  0  0  0
  -12.1429   10.2922   -8.2650 H   0  0  0  0  0  0  0  0  0  0  0  0
   -9.1549    9.9257  -10.0565 H   0  0  0  0  0  0  0  0  0  0  0  0
   -9.9534    9.6599  -11.6456 H   0  0  0  0  0  0  0  0  0  0  0  0
   -8.9065   11.9137  -11.4898 H   0  0  0  0  0  0  0  0  0  0  0  0
  -10.7055   11.9973  -11.6812 H   0  0  0  0  0  0  0  0  0  0  0  0
   -9.0479   14.7472   -7.9853 H   0  0  0  0  0  0  0  0  0  0  0  0
  -11.8998   16.0620  -11.4114 H   0  0  0  0  0  0  0  0  0  0  0  0
  -11.4460   14.3760  -12.1500 H   0  0  0  0  0  0  0  0  0  0  0  0
  -14.6719   13.7943  -15.5414 H   0  0  0  0  0  0  0  0  0  0  0  0
  -15.6192   11.6987  -14.7092 H   0  0  0  0  0  0  0  0  0  0  0  0
  -13.8421   10.0050  -10.7671 H   0  0  0  0  0  0  0  0  0  0  0  0
  -15.1998   10.9213  -10.1658 H   0  0  0  0  0  0  0  0  0  0  0  0
  -14.7615   17.5440  -10.3652 H   0  0  0  0  0  0  0  0  0  0  0  0
  -13.5030   17.9560   -8.5080 H   0  0  0  0  0  0  0  0  0  0  0  0
   -7.0801   14.1635   -7.1338 H   0  0  0  0  0  0  0  0  0  0  0  0
   -5.8923   14.0251   -5.7692 H   0  0  0  0  0  0  0  0  0  0  0  0
   -5.7361   12.0917   -7.3216 H   0  0  0  0  0  0  0  0  0  0  0  0
   -6.2653   11.6013   -5.6644 H   0  0  0  0  0  0  0  0  0  0  0  0
  1  2  1  0
  2  3  1  0
  3  4  1  0
  4  5  1  0
  5  6  1  0
  6  7  1  0
  7  8  1  0
  8  9  1  0
  9 10  2  0
 10 11  1  0
 11 12  2  0
 12 13  1  0
 13 14  1  0
 14 15  1  0
 15 16  1  0
 16 17  1  0
 17 18  1  0
 18 19  1  0
 19 20  1  0
 13 21  2  0
 12 22  1  0
 22 23  1  0
 23 24  1  0
 24 25  2  0
 25 26  1  0
 25 27  1  0
 27 28  2  0
 28 29  1  0
 29 30  2  0
 30 31  1  0
 31 32  1  0
 32 33  1  0
 22 34  1  0
 34 35  2  0
 35 36  1  0
  5 37  1  0
 37 38  1  0
 38  2  1  0
 21  9  1  0
 30 24  1  0
 36 11  1  0
 20 15  1  0
 33 29  1  0
  1 39  1  0
  1 40  1  0
  1 41  1  0
  3 42  1  0
  3 43  1  0
  4 44  1  0
  4 45  1  0
  6 46  1  0
  6 47  1  0
  7 48  1  0
  7 49  1  0
 10 50  1  0
 15 51  1  0
 16 52  1  0
 16 53  1  0
 17 54  1  0
 17 55  1  0
 19 56  1  0
 19 57  1  0
 20 58  1  0
 20 59  1  0
 21 60  1  0
 22 61  1  0
 23 62  1  0
 27 63  1  0
 28 64  1  0
 32 65  1  0
 32 66  1  0
 35 67  1  0
 36 68  1  0
 37 69  1  0
 37 70  1  0
 38 71  1  0
 38 72  1  0
M  END
>  <meeko>  (6)
{"is_sidechain": false}

>  <source_group>  (6)
FYN canonical

>  <source_system>  (6)
FYN_saracatinib

>  <source_run>  (6)
vina_seed2207_ex32

>  <source_seed>  (6)
2207

>  <vina_pose_rank>  (6)
6

>  <vina_affinity_kcal_mol>  (6)
-8.8789999999999996

>  <vina_rmsd_to_crystal_angstrom>  (6)
3.4822000000000002

$$$$
FYN_saracatinib__vina_seed2207_ex32__pose07
     RDKit          3D

 72 77  0  0  0  0  0  0  0  0999 V2000
   -7.1860   22.5800   -4.1000 C   0  0  0  0  0  0  0  0  0  0  0  0
   -7.5230   21.2400   -4.5470 N   0  0  0  0  0  0  0  0  0  0  0  0
   -6.3810   20.6270   -5.2010 C   0  0  0  0  0  0  0  0  0  0  0  0
   -6.6790   19.1830   -5.6320 C   0  0  0  0  0  0  0  0  0  0  0  0
   -7.1070   18.3470   -4.5150 N   0  0  0  0  0  0  0  0  0  0  0  0
   -7.4340   17.0160   -5.0150 C   0  0  0  0  0  0  0  0  0  0  0  0
   -8.3260   16.9590   -6.2670 C   0  0  0  0  0  0  0  0  0  0  0  0
   -9.1710   15.8330   -6.2740 O   0  0  0  0  0  0  0  0  0  0  0  0
   -9.9540   15.6800   -7.3920 C   0  0  0  0  0  0  0  0  0  0  0  0
  -11.0290   16.4400   -7.6300 C   0  0  0  0  0  0  0  0  0  0  0  0
  -11.7830   16.2650   -8.7250 C   0  0  0  0  0  0  0  0  0  0  0  0
  -11.5130   15.3090   -9.6570 C   0  0  0  0  0  0  0  0  0  0  0  0
  -10.4270   14.5180   -9.4330 C   0  0  0  0  0  0  0  0  0  0  0  0
  -10.0500   13.5300  -10.3220 O   0  0  0  0  0  0  0  0  0  0  0  0
   -9.9430   12.1750   -9.9590 C   0  0  0  0  0  0  0  0  0  0  0  0
  -10.9750   11.7400   -8.9170 C   0  0  0  0  0  0  0  0  0  0  0  0
  -11.0610   10.2200   -8.8280 C   0  0  0  0  0  0  0  0  0  0  0  0
  -11.3540    9.6600  -10.0850 O   0  0  0  0  0  0  0  0  0  0  0  0
  -10.2970    9.8850  -10.9780 C   0  0  0  0  0  0  0  0  0  0  0  0
  -10.1650   11.3790  -11.2560 C   0  0  0  0  0  0  0  0  0  0  0  0
   -9.6930   14.7380   -8.3170 C   0  0  0  0  0  0  0  0  0  0  0  0
  -12.3590   15.2440  -10.7250 C   0  0  0  0  0  0  0  0  0  0  0  0
  -12.4270   14.4930  -11.7620 N   0  0  0  0  0  0  0  0  0  0  0  0
  -13.3180   14.1060  -12.5960 C   0  0  0  0  0  0  0  0  0  0  0  0
  -14.0470   12.9820  -12.3410 C   0  0  0  0  0  0  0  0  0  0  0  0
  -13.8540   12.0010  -10.9160 Cl  0  0  0  0  0  0  0  0  0  0  0  0
  -15.0010   12.5570  -13.1920 C   0  0  0  0  0  0  0  0  0  0  0  0
  -15.2700   13.2110  -14.3300 C   0  0  0  0  0  0  0  0  0  0  0  0
  -14.5590   14.3100  -14.5940 C   0  0  0  0  0  0  0  0  0  0  0  0
  -13.6100   14.7420  -13.7530 C   0  0  0  0  0  0  0  0  0  0  0  0
  -13.0930   15.7660  -14.2040 O   0  0  0  0  0  0  0  0  0  0  0  0
  -13.6660   16.0430  -15.4810 C   0  0  0  0  0  0  0  0  0  0  0  0
  -14.6620   15.0330  -15.5850 O   0  0  0  0  0  0  0  0  0  0  0  0
  -13.3310   16.0700  -10.7610 N   0  0  0  0  0  0  0  0  0  0  0  0
  -13.4960   16.9180   -9.8410 C   0  0  0  0  0  0  0  0  0  0  0  0
  -12.7680   17.0560   -8.8240 N   0  0  0  0  0  0  0  0  0  0  0  0
   -8.2570   18.9810   -3.8880 C   0  0  0  0  0  0  0  0  0  0  0  0
   -7.9410   20.4160   -3.4270 C   0  0  0  0  0  0  0  0  0  0  0  0
   -7.1788   22.6087   -3.0004 H   0  0  0  0  0  0  0  0  0  0  0  0
   -6.1910   22.8541   -4.4805 H   0  0  0  0  0  0  0  0  0  0  0  0
   -7.9330   23.2922   -4.4805 H   0  0  0  0  0  0  0  0  0  0  0  0
   -6.1208   21.2181   -6.0915 H   0  0  0  0  0  0  0  0  0  0  0  0
   -5.5470   20.6051   -4.4841 H   0  0  0  0  0  0  0  0  0  0  0  0
   -7.4773   19.1976   -6.3887 H   0  0  0  0  0  0  0  0  0  0  0  0
   -5.7497   18.7544   -6.0354 H   0  0  0  0  0  0  0  0  0  0  0  0
   -6.4890   16.5058   -5.2531 H   0  0  0  0  0  0  0  0  0  0  0  0
   -8.0191   16.5377   -4.2157 H   0  0  0  0  0  0  0  0  0  0  0  0
   -8.9467   17.8665   -6.2999 H   0  0  0  0  0  0  0  0  0  0  0  0
   -7.6670   16.8888   -7.1450 H   0  0  0  0  0  0  0  0  0  0  0  0
  -11.3007   17.2267   -6.9108 H   0  0  0  0  0  0  0  0  0  0  0  0
   -8.9602   11.9980   -9.4976 H   0  0  0  0  0  0  0  0  0  0  0  0
  -10.6844   12.1412   -7.9348 H   0  0  0  0  0  0  0  0  0  0  0  0
  -11.9593   12.1278   -9.2182 H   0  0  0  0  0  0  0  0  0  0  0  0
  -10.0977    9.8248   -8.4732 H   0  0  0  0  0  0  0  0  0  0  0  0
  -11.8665    9.9536   -8.1278 H   0  0  0  0  0  0  0  0  0  0  0  0
   -9.3609    9.5114  -10.5375 H   0  0  0  0  0  0  0  0  0  0  0  0
  -10.4995    9.3564  -11.9212 H   0  0  0  0  0  0  0  0  0  0  0  0
   -9.3095   11.5436  -11.9275 H   0  0  0  0  0  0  0  0  0  0  0  0
  -11.0992   11.7281  -11.7201 H   0  0  0  0  0  0  0  0  0  0  0  0
   -8.8145   14.0966   -8.1534 H   0  0  0  0  0  0  0  0  0  0  0  0
  -11.7172   15.9470  -11.2762 H   0  0  0  0  0  0  0  0  0  0  0  0
  -11.4930   14.0700  -12.0080 H   0  0  0  0  0  0  0  0  0  0  0  0
  -15.5734   11.6504  -12.9464 H   0  0  0  0  0  0  0  0  0  0  0  0
  -16.0481   12.8556  -15.0215 H   0  0  0  0  0  0  0  0  0  0  0  0
  -14.1119   17.0482  -15.5092 H   0  0  0  0  0  0  0  0  0  0  0  0
  -12.9374   16.0331  -16.3050 H   0  0  0  0  0  0  0  0  0  0  0  0
  -14.3547   17.5987   -9.9369 H   0  0  0  0  0  0  0  0  0  0  0  0
  -12.9540   17.7410   -8.1410 H   0  0  0  0  0  0  0  0  0  0  0  0
   -9.0838   19.0142   -4.6127 H   0  0  0  0  0  0  0  0  0  0  0  0
   -8.5305   18.3904   -3.0012 H   0  0  0  0  0  0  0  0  0  0  0  0
   -8.8418   20.8551   -2.9733 H   0  0  0  0  0  0  0  0  0  0  0  0
   -7.1215   20.3772   -2.6942 H   0  0  0  0  0  0  0  0  0  0  0  0
  1  2  1  0
  2  3  1  0
  3  4  1  0
  4  5  1  0
  5  6  1  0
  6  7  1  0
  7  8  1  0
  8  9  1  0
  9 10  2  0
 10 11  1  0
 11 12  2  0
 12 13  1  0
 13 14  1  0
 14 15  1  0
 15 16  1  0
 16 17  1  0
 17 18  1  0
 18 19  1  0
 19 20  1  0
 13 21  2  0
 12 22  1  0
 22 23  1  0
 23 24  1  0
 24 25  2  0
 25 26  1  0
 25 27  1  0
 27 28  2  0
 28 29  1  0
 29 30  2  0
 30 31  1  0
 31 32  1  0
 32 33  1  0
 22 34  1  0
 34 35  2  0
 35 36  1  0
  5 37  1  0
 37 38  1  0
 38  2  1  0
 21  9  1  0
 30 24  1  0
 36 11  1  0
 20 15  1  0
 33 29  1  0
  1 39  1  0
  1 40  1  0
  1 41  1  0
  3 42  1  0
  3 43  1  0
  4 44  1  0
  4 45  1  0
  6 46  1  0
  6 47  1  0
  7 48  1  0
  7 49  1  0
 10 50  1  0
 15 51  1  0
 16 52  1  0
 16 53  1  0
 17 54  1  0
 17 55  1  0
 19 56  1  0
 19 57  1  0
 20 58  1  0
 20 59  1  0
 21 60  1  0
 22 61  1  0
 23 62  1  0
 27 63  1  0
 28 64  1  0
 32 65  1  0
 32 66  1  0
 35 67  1  0
 36 68  1  0
 37 69  1  0
 37 70  1  0
 38 71  1  0
 38 72  1  0
M  END
>  <meeko>  (7)
{"is_sidechain": false}

>  <source_group>  (7)
FYN canonical

>  <source_system>  (7)
FYN_saracatinib

>  <source_run>  (7)
vina_seed2207_ex32

>  <source_seed>  (7)
2207

>  <vina_pose_rank>  (7)
7

>  <vina_affinity_kcal_mol>  (7)
-8.8499999999999996

>  <vina_rmsd_to_crystal_angstrom>  (7)
2.1751999999999998

$$$$
FYN_saracatinib__vina_seed2207_ex32__pose08
     RDKit          3D

 72 77  0  0  0  0  0  0  0  0999 V2000
   -8.4140   13.9520   -1.1300 C   0  0  0  0  0  0  0  0  0  0  0  0
   -8.0840   14.1750   -2.5270 N   0  0  0  0  0  0  0  0  0  0  0  0
   -8.9300   13.3570   -3.3790 C   0  0  0  0  0  0  0  0  0  0  0  0
   -8.6550   13.6120   -4.8680 C   0  0  0  0  0  0  0  0  0  0  0  0
   -8.8130   15.0180   -5.2300 N   0  0  0  0  0  0  0  0  0  0  0  0
   -8.4690   15.1880   -6.6380 C   0  0  0  0  0  0  0  0  0  0  0  0
   -9.5640   14.8240   -7.6550 C   0  0  0  0  0  0  0  0  0  0  0  0
  -10.4680   15.8800   -7.8710 O   0  0  0  0  0  0  0  0  0  0  0  0
  -11.3670   15.6990   -8.8950 C   0  0  0  0  0  0  0  0  0  0  0  0
  -12.3950   16.5280   -9.1080 C   0  0  0  0  0  0  0  0  0  0  0  0
  -13.2630   16.3240  -10.1100 C   0  0  0  0  0  0  0  0  0  0  0  0
  -13.1630   15.2680  -10.9650 C   0  0  0  0  0  0  0  0  0  0  0  0
  -12.1270   14.4070  -10.7630 C   0  0  0  0  0  0  0  0  0  0  0  0
  -11.9190   13.3130  -11.5820 O   0  0  0  0  0  0  0  0  0  0  0  0
  -11.9920   11.9870  -11.1200 C   0  0  0  0  0  0  0  0  0  0  0  0
  -13.4230   11.5060  -10.8700 C   0  0  0  0  0  0  0  0  0  0  0  0
  -13.4760    9.9890  -10.7270 C   0  0  0  0  0  0  0  0  0  0  0  0
  -12.9300    9.3600  -11.8600 O   0  0  0  0  0  0  0  0  0  0  0  0
  -11.5590    9.6390  -11.9590 C   0  0  0  0  0  0  0  0  0  0  0  0
  -11.3540   11.1270  -12.2230 C   0  0  0  0  0  0  0  0  0  0  0  0
  -11.2740   14.6590   -9.7440 C   0  0  0  0  0  0  0  0  0  0  0  0
  -14.1110   15.1840  -11.9420 C   0  0  0  0  0  0  0  0  0  0  0  0
  -14.3400   14.3530  -12.8910 N   0  0  0  0  0  0  0  0  0  0  0  0
  -14.7370   14.3880  -14.1080 C   0  0  0  0  0  0  0  0  0  0  0  0
  -13.9950   15.0390  -15.0480 C   0  0  0  0  0  0  0  0  0  0  0  0
  -12.4940   15.8520  -14.7090 Cl  0  0  0  0  0  0  0  0  0  0  0  0
  -14.3800   15.0820  -16.3390 C   0  0  0  0  0  0  0  0  0  0  0  0
  -15.5110   14.4960  -16.7540 C   0  0  0  0  0  0  0  0  0  0  0  0
  -16.2500   13.8600  -15.8420 C   0  0  0  0  0  0  0  0  0  0  0  0
  -15.8750   13.8100  -14.5570 C   0  0  0  0  0  0  0  0  0  0  0  0
  -16.7070   13.1740  -13.9070 O   0  0  0  0  0  0  0  0  0  0  0  0
  -17.7770   12.8040  -14.7750 C   0  0  0  0  0  0  0  0  0  0  0  0
  -17.3130   13.2720  -16.0360 O   0  0  0  0  0  0  0  0  0  0  0  0
  -15.0120   16.0870  -11.9710 N   0  0  0  0  0  0  0  0  0  0  0  0
  -15.0180   17.0250  -11.1270 C   0  0  0  0  0  0  0  0  0  0  0  0
  -14.1860   17.1870  -10.1970 N   0  0  0  0  0  0  0  0  0  0  0  0
   -7.9460   15.8080   -4.3680 C   0  0  0  0  0  0  0  0  0  0  0  0
   -8.2500   15.5740   -2.8770 C   0  0  0  0  0  0  0  0  0  0  0  0
   -7.6709   14.4541   -0.4930 H   0  0  0  0  0  0  0  0  0  0  0  0
   -9.4134   14.3607   -0.9196 H   0  0  0  0  0  0  0  0  0  0  0  0
   -8.4076   12.8723   -0.9196 H   0  0  0  0  0  0  0  0  0  0  0  0
   -8.7389   12.2965   -3.1580 H   0  0  0  0  0  0  0  0  0  0  0  0
   -9.9783   13.6204   -3.1746 H   0  0  0  0  0  0  0  0  0  0  0  0
   -7.6242   13.3024   -5.0950 H   0  0  0  0  0  0  0  0  0  0  0  0
   -9.3871   13.0316   -5.4487 H   0  0  0  0  0  0  0  0  0  0  0  0
   -8.2049   16.2444   -6.7934 H   0  0  0  0  0  0  0  0  0  0  0  0
   -7.6467   14.4822   -6.8267 H   0  0  0  0  0  0  0  0  0  0  0  0
   -9.0860   14.5669   -8.6118 H   0  0  0  0  0  0  0  0  0  0  0  0
  -10.1317   13.9748   -7.2469 H   0  0  0  0  0  0  0  0  0  0  0  0
  -12.5315   17.3963   -8.4467 H   0  0  0  0  0  0  0  0  0  0  0  0
  -11.4778   11.9109  -10.1506 H   0  0  0  0  0  0  0  0  0  0  0  0
  -13.8005   11.9672   -9.9455 H   0  0  0  0  0  0  0  0  0  0  0  0
  -14.0443   11.7974  -11.7297 H   0  0  0  0  0  0  0  0  0  0  0  0
  -12.9019    9.6906   -9.8374 H   0  0  0  0  0  0  0  0  0  0  0  0
  -14.5273    9.6815  -10.6260 H   0  0  0  0  0  0  0  0  0  0  0  0
  -11.0609    9.3628  -11.0179 H   0  0  0  0  0  0  0  0  0  0  0  0
  -11.1288    9.0595  -12.7891 H   0  0  0  0  0  0  0  0  0  0  0  0
  -10.2751   11.3380  -12.2619 H   0  0  0  0  0  0  0  0  0  0  0  0
  -11.8363   11.3780  -13.1792 H   0  0  0  0  0  0  0  0  0  0  0  0
  -10.4384   13.9587   -9.5977 H   0  0  0  0  0  0  0  0  0  0  0  0
  -13.4710   15.7748  -12.6138 H   0  0  0  0  0  0  0  0  0  0  0  0
  -14.1500   13.3570  -12.6010 H   0  0  0  0  0  0  0  0  0  0  0  0
  -13.7503   15.6110  -17.0695 H   0  0  0  0  0  0  0  0  0  0  0  0
  -15.8199   14.5374  -17.8089 H   0  0  0  0  0  0  0  0  0  0  0  0
  -17.9255   11.7141  -14.7836 H   0  0  0  0  0  0  0  0  0  0  0  0
  -18.7511   13.2207  -14.4793 H   0  0  0  0  0  0  0  0  0  0  0  0
  -15.8239   17.7688  -11.2120 H   0  0  0  0  0  0  0  0  0  0  0  0
  -14.2490   17.9450   -9.5700 H   0  0  0  0  0  0  0  0  0  0  0  0
   -6.9001   15.5304   -4.5654 H   0  0  0  0  0  0  0  0  0  0  0  0
   -8.1231   16.8709   -4.5889 H   0  0  0  0  0  0  0  0  0  0  0  0
   -7.5624   16.1810   -2.2698 H   0  0  0  0  0  0  0  0  0  0  0  0
   -9.2931   15.8634   -2.6818 H   0  0  0  0  0  0  0  0  0  0  0  0
  1  2  1  0
  2  3  1  0
  3  4  1  0
  4  5  1  0
  5  6  1  0
  6  7  1  0
  7  8  1  0
  8  9  1  0
  9 10  2  0
 10 11  1  0
 11 12  2  0
 12 13  1  0
 13 14  1  0
 14 15  1  0
 15 16  1  0
 16 17  1  0
 17 18  1  0
 18 19  1  0
 19 20  1  0
 13 21  2  0
 12 22  1  0
 22 23  1  0
 23 24  1  0
 24 25  2  0
 25 26  1  0
 25 27  1  0
 27 28  2  0
 28 29  1  0
 29 30  2  0
 30 31  1  0
 31 32  1  0
 32 33  1  0
 22 34  1  0
 34 35  2  0
 35 36  1  0
  5 37  1  0
 37 38  1  0
 38  2  1  0
 21  9  1  0
 30 24  1  0
 36 11  1  0
 20 15  1  0
 33 29  1  0
  1 39  1  0
  1 40  1  0
  1 41  1  0
  3 42  1  0
  3 43  1  0
  4 44  1  0
  4 45  1  0
  6 46  1  0
  6 47  1  0
  7 48  1  0
  7 49  1  0
 10 50  1  0
 15 51  1  0
 16 52  1  0
 16 53  1  0
 17 54  1  0
 17 55  1  0
 19 56  1  0
 19 57  1  0
 20 58  1  0
 20 59  1  0
 21 60  1  0
 22 61  1  0
 23 62  1  0
 27 63  1  0
 28 64  1  0
 32 65  1  0
 32 66  1  0
 35 67  1  0
 36 68  1  0
 37 69  1  0
 37 70  1  0
 38 71  1  0
 38 72  1  0
M  END
>  <meeko>  (8)
{"is_sidechain": false}

>  <source_group>  (8)
FYN canonical

>  <source_system>  (8)
FYN_saracatinib

>  <source_run>  (8)
vina_seed2207_ex32

>  <source_seed>  (8)
2207

>  <vina_pose_rank>  (8)
8

>  <vina_affinity_kcal_mol>  (8)
-8.766

>  <vina_rmsd_to_crystal_angstrom>  (8)
2.9367999999999999

$$$$
FYN_saracatinib__vina_seed2207_ex32__pose09
     RDKit          3D

 72 77  0  0  0  0  0  0  0  0999 V2000
   -7.9330   17.5880   -0.8980 C   0  0  0  0  0  0  0  0  0  0  0  0
   -8.4800   16.5000   -1.6910 N   0  0  0  0  0  0  0  0  0  0  0  0
   -8.1800   16.7050   -3.0970 C   0  0  0  0  0  0  0  0  0  0  0  0
   -8.6870   15.5420   -3.9620 C   0  0  0  0  0  0  0  0  0  0  0  0
   -8.1510   14.2540   -3.5320 N   0  0  0  0  0  0  0  0  0  0  0  0
   -8.7300   13.1990   -4.3560 C   0  0  0  0  0  0  0  0  0  0  0  0
   -9.0010   13.5550   -5.8280 C   0  0  0  0  0  0  0  0  0  0  0  0
   -9.8870   12.6520   -6.4440 O   0  0  0  0  0  0  0  0  0  0  0  0
  -10.4780   13.0910   -7.6040 C   0  0  0  0  0  0  0  0  0  0  0  0
  -11.0030   14.3150   -7.7280 C   0  0  0  0  0  0  0  0  0  0  0  0
  -11.5810   14.7170   -8.8690 C   0  0  0  0  0  0  0  0  0  0  0  0
  -11.6780   13.9150   -9.9660 C   0  0  0  0  0  0  0  0  0  0  0  0
  -11.1570   12.6610   -9.8610 C   0  0  0  0  0  0  0  0  0  0  0  0
  -11.1830   11.7700  -10.9180 O   0  0  0  0  0  0  0  0  0  0  0  0
  -10.7210   10.4460  -10.8130 C   0  0  0  0  0  0  0  0  0  0  0  0
  -11.8380    9.4030  -10.8700 C   0  0  0  0  0  0  0  0  0  0  0  0
  -11.2760    8.0070  -11.1170 C   0  0  0  0  0  0  0  0  0  0  0  0
  -10.5060    7.9790  -12.2950 O   0  0  0  0  0  0  0  0  0  0  0  0
   -9.3640    8.7790  -12.1500 C   0  0  0  0  0  0  0  0  0  0  0  0
   -9.7740   10.2410  -12.0070 C   0  0  0  0  0  0  0  0  0  0  0  0
  -10.5770   12.3040   -8.6920 C   0  0  0  0  0  0  0  0  0  0  0  0
  -12.2880   14.4530  -11.0620 C   0  0  0  0  0  0  0  0  0  0  0  0
  -12.5620   14.0110  -12.2340 N   0  0  0  0  0  0  0  0  0  0  0  0
  -13.5880   13.9080  -12.9930 C   0  0  0  0  0  0  0  0  0  0  0  0
  -14.5290   12.9550  -12.7390 C   0  0  0  0  0  0  0  0  0  0  0  0
  -14.4410   11.8290  -11.4140 Cl  0  0  0  0  0  0  0  0  0  0  0  0
  -15.6270   12.8310  -13.5110 C   0  0  0  0  0  0  0  0  0  0  0  0
  -15.8380   13.6300  -14.5660 C   0  0  0  0  0  0  0  0  0  0  0  0
  -14.9200   14.5650  -14.8280 C   0  0  0  0  0  0  0  0  0  0  0  0
  -13.8280   14.6970  -14.0650 C   0  0  0  0  0  0  0  0  0  0  0  0
  -13.1310   15.6180  -14.4960 O   0  0  0  0  0  0  0  0  0  0  0  0
  -13.7360   16.1310  -15.6830 C   0  0  0  0  0  0  0  0  0  0  0  0
  -14.9430   15.3800  -15.7490 O   0  0  0  0  0  0  0  0  0  0  0  0
  -12.7210   15.6500  -10.9700 N   0  0  0  0  0  0  0  0  0  0  0  0
  -12.5830   16.3090   -9.9030 C   0  0  0  0  0  0  0  0  0  0  0  0
  -12.0340   15.9010   -8.8470 N   0  0  0  0  0  0  0  0  0  0  0  0
   -8.4770   14.0740   -2.1250 C   0  0  0  0  0  0  0  0  0  0  0  0
   -7.9350   15.2260   -1.2580 C   0  0  0  0  0  0  0  0  0  0  0  0
   -8.0492   17.3569    0.1712 H   0  0  0  0  0  0  0  0  0  0  0  0
   -6.8654   17.7119   -1.1324 H   0  0  0  0  0  0  0  0  0  0  0  0
   -8.4703   18.5188   -1.1324 H   0  0  0  0  0  0  0  0  0  0  0  0
   -8.6621   17.6351   -3.4323 H   0  0  0  0  0  0  0  0  0  0  0  0
   -7.0873   16.7644   -3.2091 H   0  0  0  0  0  0  0  0  0  0  0  0
   -9.7846   15.5068   -3.8986 H   0  0  0  0  0  0  0  0  0  0  0  0
   -8.3484   15.7187   -4.9936 H   0  0  0  0  0  0  0  0  0  0  0  0
   -8.0385   12.3436   -4.3399 H   0  0  0  0  0  0  0  0  0  0  0  0
   -9.7176   12.9931   -3.9175 H   0  0  0  0  0  0  0  0  0  0  0  0
   -9.4370   14.5639   -5.8729 H   0  0  0  0  0  0  0  0  0  0  0  0
   -8.0433   13.5054   -6.3668 H   0  0  0  0  0  0  0  0  0  0  0  0
  -10.9595   15.0075   -6.8744 H   0  0  0  0  0  0  0  0  0  0  0  0
  -10.2340   10.3073   -9.8365 H   0  0  0  0  0  0  0  0  0  0  0  0
  -12.3819    9.4070   -9.9139 H   0  0  0  0  0  0  0  0  0  0  0  0
  -12.5123    9.6593  -11.7005 H   0  0  0  0  0  0  0  0  0  0  0  0
  -10.6428    7.7173  -10.2654 H   0  0  0  0  0  0  0  0  0  0  0  0
  -12.1147    7.3039  -11.2274 H   0  0  0  0  0  0  0  0  0  0  0  0
   -8.8097    8.4655  -11.2531 H   0  0  0  0  0  0  0  0  0  0  0  0
   -8.7251    8.6655  -13.0382 H   0  0  0  0  0  0  0  0  0  0  0  0
   -8.8719   10.8523  -11.8569 H   0  0  0  0  0  0  0  0  0  0  0  0
  -10.3030   10.5425  -12.9231 H   0  0  0  0  0  0  0  0  0  0  0  0
  -10.1530   11.2912   -8.6251 H   0  0  0  0  0  0  0  0  0  0  0  0
  -11.3150   14.8148  -11.4259 H   0  0  0  0  0  0  0  0  0  0  0  0
  -11.7120   13.6210  -12.7190 H   0  0  0  0  0  0  0  0  0  0  0  0
  -16.3680   12.0549  -13.2691 H   0  0  0  0  0  0  0  0  0  0  0  0
  -16.7346   13.5201  -15.1937 H   0  0  0  0  0  0  0  0  0  0  0  0
  -13.9400   17.2082  -15.5940 H   0  0  0  0  0  0  0  0  0  0  0  0
  -13.1050   16.0356  -16.5790 H   0  0  0  0  0  0  0  0  0  0  0  0
  -12.9793   17.3351   -9.8953 H   0  0  0  0  0  0  0  0  0  0  0  0
  -11.9600   16.4700   -8.0470 H   0  0  0  0  0  0  0  0  0  0  0  0
   -9.5707   14.0311   -2.0160 H   0  0  0  0  0  0  0  0  0  0  0  0
   -8.0075   13.1399   -1.7830 H   0  0  0  0  0  0  0  0  0  0  0  0
   -8.2171   15.0512   -0.2093 H   0  0  0  0  0  0  0  0  0  0  0  0
   -6.8403   15.2586   -1.3607 H   0  0  0  0  0  0  0  0  0  0  0  0
  1  2  1  0
  2  3  1  0
  3  4  1  0
  4  5  1  0
  5  6  1  0
  6  7  1  0
  7  8  1  0
  8  9  1  0
  9 10  2  0
 10 11  1  0
 11 12  2  0
 12 13  1  0
 13 14  1  0
 14 15  1  0
 15 16  1  0
 16 17  1  0
 17 18  1  0
 18 19  1  0
 19 20  1  0
 13 21  2  0
 12 22  1  0
 22 23  1  0
 23 24  1  0
 24 25  2  0
 25 26  1  0
 25 27  1  0
 27 28  2  0
 28 29  1  0
 29 30  2  0
 30 31  1  0
 31 32  1  0
 32 33  1  0
 22 34  1  0
 34 35  2  0
 35 36  1  0
  5 37  1  0
 37 38  1  0
 38  2  1  0
 21  9  1  0
 30 24  1  0
 36 11  1  0
 20 15  1  0
 33 29  1  0
  1 39  1  0
  1 40  1  0
  1 41  1  0
  3 42  1  0
  3 43  1  0
  4 44  1  0
  4 45  1  0
  6 46  1  0
  6 47  1  0
  7 48  1  0
  7 49  1  0
 10 50  1  0
 15 51  1  0
 16 52  1  0
 16 53  1  0
 17 54  1  0
 17 55  1  0
 19 56  1  0
 19 57  1  0
 20 58  1  0
 20 59  1  0
 21 60  1  0
 22 61  1  0
 23 62  1  0
 27 63  1  0
 28 64  1  0
 32 65  1  0
 32 66  1  0
 35 67  1  0
 36 68  1  0
 37 69  1  0
 37 70  1  0
 38 71  1  0
 38 72  1  0
M  END
>  <meeko>  (9)
{"is_sidechain": false}

>  <source_group>  (9)
FYN canonical

>  <source_system>  (9)
FYN_saracatinib

>  <source_run>  (9)
vina_seed2207_ex32

>  <source_seed>  (9)
2207

>  <vina_pose_rank>  (9)
9

>  <vina_affinity_kcal_mol>  (9)
-8.7070000000000007

>  <vina_rmsd_to_crystal_angstrom>  (9)
2.5280999999999998

$$$$
FYN_saracatinib__vina_seed2207_ex32__pose10
     RDKit          3D

 72 77  0  0  0  0  0  0  0  0999 V2000
  -17.4700   12.5950  -15.7640 C   0  0  0  0  0  0  0  0  0  0  0  0
  -16.3210   13.0230  -14.9850 N   0  0  0  0  0  0  0  0  0  0  0  0
  -15.3700   13.7180  -15.8340 C   0  0  0  0  0  0  0  0  0  0  0  0
  -14.1690   14.2430  -15.0340 C   0  0  0  0  0  0  0  0  0  0  0  0
  -14.5720   15.1170  -13.9370 N   0  0  0  0  0  0  0  0  0  0  0  0
  -13.3860   15.5170  -13.1870 C   0  0  0  0  0  0  0  0  0  0  0  0
  -13.2580   14.9530  -11.7620 C   0  0  0  0  0  0  0  0  0  0  0  0
  -13.2090   15.9650  -10.7860 O   0  0  0  0  0  0  0  0  0  0  0  0
  -12.2050   15.8510   -9.8550 C   0  0  0  0  0  0  0  0  0  0  0  0
  -12.0230   16.7440   -8.8760 C   0  0  0  0  0  0  0  0  0  0  0  0
  -11.0300   16.6140   -7.9850 C   0  0  0  0  0  0  0  0  0  0  0  0
  -10.1450   15.5780   -8.0160 C   0  0  0  0  0  0  0  0  0  0  0  0
  -10.3080   14.6600   -9.0080 C   0  0  0  0  0  0  0  0  0  0  0  0
   -9.4790   13.5590   -9.1240 O   0  0  0  0  0  0  0  0  0  0  0  0
   -9.7510   12.4850   -9.9910 C   0  0  0  0  0  0  0  0  0  0  0  0
   -8.6100   12.1830  -10.9640 C   0  0  0  0  0  0  0  0  0  0  0  0
   -8.7920   10.8170  -11.6180 C   0  0  0  0  0  0  0  0  0  0  0  0
   -8.8990    9.8070  -10.6450 O   0  0  0  0  0  0  0  0  0  0  0  0
  -10.0690    9.9760   -9.8920 C   0  0  0  0  0  0  0  0  0  0  0  0
   -9.9800   11.2660   -9.0830 C   0  0  0  0  0  0  0  0  0  0  0  0
  -11.3280   14.8300   -9.8800 C   0  0  0  0  0  0  0  0  0  0  0  0
   -9.1870   15.5670   -7.0460 C   0  0  0  0  0  0  0  0  0  0  0  0
   -8.2090   14.7840   -6.7700 N   0  0  0  0  0  0  0  0  0  0  0  0
   -7.2930   14.6880   -5.8810 C   0  0  0  0  0  0  0  0  0  0  0  0
   -7.5060   13.9390   -4.7620 C   0  0  0  0  0  0  0  0  0  0  0  0
   -8.9800   13.0710   -4.4390 Cl  0  0  0  0  0  0  0  0  0  0  0  0
   -6.5570   13.8070   -3.8150 C   0  0  0  0  0  0  0  0  0  0  0  0
   -5.3660   14.4120   -3.9250 C   0  0  0  0  0  0  0  0  0  0  0  0
   -5.1460   15.1530   -5.0140 C   0  0  0  0  0  0  0  0  0  0  0  0
   -6.0830   15.2880   -5.9610 C   0  0  0  0  0  0  0  0  0  0  0  0
   -5.6580   16.0120   -6.8640 O   0  0  0  0  0  0  0  0  0  0  0  0
   -4.3580   16.4760   -6.5030 C   0  0  0  0  0  0  0  0  0  0  0  0
   -4.1230   15.7800   -5.2840 O   0  0  0  0  0  0  0  0  0  0  0  0
   -9.1910   16.5220   -6.1990 N   0  0  0  0  0  0  0  0  0  0  0  0
  -10.0550   17.4390   -6.2590 C   0  0  0  0  0  0  0  0  0  0  0  0
  -10.9760   17.5320   -7.1120 N   0  0  0  0  0  0  0  0  0  0  0  0
  -15.5150   14.3910  -13.0990 C   0  0  0  0  0  0  0  0  0  0  0  0
  -16.7340   13.8970  -13.9020 C   0  0  0  0  0  0  0  0  0  0  0  0
  -18.2812   12.2928  -15.0853 H   0  0  0  0  0  0  0  0  0  0  0  0
  -17.8130   13.4257  -16.3983 H   0  0  0  0  0  0  0  0  0  0  0  0
  -17.1859   11.7424  -16.3983 H   0  0  0  0  0  0  0  0  0  0  0  0
  -15.0074   13.0230  -16.6057 H   0  0  0  0  0  0  0  0  0  0  0  0
  -15.8821   14.5797  -16.2871 H   0  0  0  0  0  0  0  0  0  0  0  0
  -13.6187   13.3857  -14.6191 H   0  0  0  0  0  0  0  0  0  0  0  0
  -13.5405   14.8313  -15.7188 H   0  0  0  0  0  0  0  0  0  0  0  0
  -12.5034   15.1910  -13.7569 H   0  0  0  0  0  0  0  0  0  0  0  0
  -13.4706   16.6069  -13.0643 H   0  0  0  0  0  0  0  0  0  0  0  0
  -14.1254   14.3079  -11.5584 H   0  0  0  0  0  0  0  0  0  0  0  0
  -12.3146   14.3898  -11.7082 H   0  0  0  0  0  0  0  0  0  0  0  0
  -12.7037   17.6047   -8.8003 H   0  0  0  0  0  0  0  0  0  0  0  0
  -10.6194   12.7345  -10.6183 H   0  0  0  0  0  0  0  0  0  0  0  0
   -8.5911   12.9560  -11.7463 H   0  0  0  0  0  0  0  0  0  0  0  0
   -7.6643   12.1778  -10.4021 H   0  0  0  0  0  0  0  0  0  0  0  0
   -9.7073   10.8284  -12.2280 H   0  0  0  0  0  0  0  0  0  0  0  0
   -7.9145   10.6081  -12.2476 H   0  0  0  0  0  0  0  0  0  0  0  0
  -10.9346   10.0282  -10.5687 H   0  0  0  0  0  0  0  0  0  0  0  0
  -10.1861    9.1241   -9.2061 H   0  0  0  0  0  0  0  0  0  0  0  0
  -10.9192   11.4053   -8.5276 H   0  0  0  0  0  0  0  0  0  0  0  0
   -9.1265   11.1834   -8.3940 H   0  0  0  0  0  0  0  0  0  0  0  0
  -11.4504   14.0754  -10.6709 H   0  0  0  0  0  0  0  0  0  0  0  0
   -9.8475   14.9695   -6.4004 H   0  0  0  0  0  0  0  0  0  0  0  0
   -8.1260   13.9940   -7.4620 H   0  0  0  0  0  0  0  0  0  0  0  0
   -6.7646   13.1877   -2.9299 H   0  0  0  0  0  0  0  0  0  0  0  0
   -4.5972   14.3021   -3.1460 H   0  0  0  0  0  0  0  0  0  0  0  0
   -3.6121   16.2087   -7.2660 H   0  0  0  0  0  0  0  0  0  0  0  0
   -4.2877   17.5698   -6.4097 H   0  0  0  0  0  0  0  0  0  0  0  0
   -9.9985   18.2296   -5.4963 H   0  0  0  0  0  0  0  0  0  0  0  0
  -11.6200   18.2770   -7.1010 H   0  0  0  0  0  0  0  0  0  0  0  0
  -15.0037   13.5225  -12.6581 H   0  0  0  0  0  0  0  0  0  0  0  0
  -15.8758   15.0767  -12.3182 H   0  0  0  0  0  0  0  0  0  0  0  0
  -17.4079   13.3447  -13.2305 H   0  0  0  0  0  0  0  0  0  0  0  0
  -17.2492   14.7691  -14.3310 H   0  0  0  0  0  0  0  0  0  0  0  0
  1  2  1  0
  2  3  1  0
  3  4  1  0
  4  5  1  0
  5  6  1  0
  6  7  1  0
  7  8  1  0
  8  9  1  0
  9 10  2  0
 10 11  1  0
 11 12  2  0
 12 13  1  0
 13 14  1  0
 14 15  1  0
 15 16  1  0
 16 17  1  0
 17 18  1  0
 18 19  1  0
 19 20  1  0
 13 21  2  0
 12 22  1  0
 22 23  1  0
 23 24  1  0
 24 25  2  0
 25 26  1  0
 25 27  1  0
 27 28  2  0
 28 29  1  0
 29 30  2  0
 30 31  1  0
 31 32  1  0
 32 33  1  0
 22 34  1  0
 34 35  2  0
 35 36  1  0
  5 37  1  0
 37 38  1  0
 38  2  1  0
 21  9  1  0
 30 24  1  0
 36 11  1  0
 20 15  1  0
 33 29  1  0
  1 39  1  0
  1 40  1  0
  1 41  1  0
  3 42  1  0
  3 43  1  0
  4 44  1  0
  4 45  1  0
  6 46  1  0
  6 47  1  0
  7 48  1  0
  7 49  1  0
 10 50  1  0
 15 51  1  0
 16 52  1  0
 16 53  1  0
 17 54  1  0
 17 55  1  0
 19 56  1  0
 19 57  1  0
 20 58  1  0
 20 59  1  0
 21 60  1  0
 22 61  1  0
 23 62  1  0
 27 63  1  0
 28 64  1  0
 32 65  1  0
 32 66  1  0
 35 67  1  0
 36 68  1  0
 37 69  1  0
 37 70  1  0
 38 71  1  0
 38 72  1  0
M  END
>  <meeko>  (10)
{"is_sidechain": false}

>  <source_group>  (10)
FYN canonical

>  <source_system>  (10)
FYN_saracatinib

>  <source_run>  (10)
vina_seed2207_ex32

>  <source_seed>  (10)
2207

>  <vina_pose_rank>  (10)
10

>  <vina_affinity_kcal_mol>  (10)
-8.4819999999999993

>  <vina_rmsd_to_crystal_angstrom>  (10)
9.4307999999999996

$$$$
