FYN_saracatinib__vina_seed2207_ex32__pose01


 40 45  0  0  0  0  0  0  0  0999 V2000
  -10.1370   16.0210   -7.4320 C   0  0  0  0  0  0  0  0  0  0  0  0
  -11.2370   16.7270   -7.7220 C   0  0  0  0  0  0  0  0  0  0  0  0
  -11.9780   16.4550   -8.8060 C   0  0  0  0  0  0  0  0  0  0  0  0
  -11.6710   15.4500   -9.6730 C   0  0  0  0  0  0  0  0  0  0  0  0
  -10.5600   14.7130   -9.3940 C   0  0  0  0  0  0  0  0  0  0  0  0
   -9.8400   15.0300   -8.2930 C   0  0  0  0  0  0  0  0  0  0  0  0
  -12.5100   15.2860  -10.7370 C   0  0  0  0  0  0  0  0  0  0  0  0
  -13.5090   16.0750  -10.8290 N   0  0  0  0  0  0  0  0  0  0  0  0
  -13.7070   16.9750   -9.9670 C   0  0  0  0  0  0  0  0  0  0  0  0
  -12.9890   17.2030   -8.9590 N   0  0  0  0  0  0  0  0  0  0  0  0
  -13.2020   17.9250   -8.3230 H   0  0  0  0  0  0  0  0  0  0  0  0
  -12.5470   14.4670  -11.7220 N   0  0  0  0  0  0  0  0  0  0  0  0
  -11.6230   13.9820  -11.8700 H   0  0  0  0  0  0  0  0  0  0  0  0
  -13.3980   14.0660  -12.5910 C   0  0  0  0  0  0  0  0  0  0  0  0
  -14.1100   12.9250  -12.3690 C   0  0  0  0  0  0  0  0  0  0  0  0
  -13.9470   11.9380  -10.9450 Cl  0  0  0  0  0  0  0  0  0  0  0  0
  -15.0230   12.4840  -13.2570 C   0  0  0  0  0  0  0  0  0  0  0  0
  -15.2650   13.1410  -14.4000 C   0  0  0  0  0  0  0  0  0  0  0  0
  -14.5690   14.2570  -14.6320 C   0  0  0  0  0  0  0  0  0  0  0  0
  -13.6620   14.7040  -13.7540 C   0  0  0  0  0  0  0  0  0  0  0  0
  -13.1510   15.7430  -14.1780 O   0  0  0  0  0  0  0  0  0  0  0  0
  -13.6840   16.0160  -15.4740 C   0  0  0  0  0  0  0  0  0  0  0  0
  -14.6530   14.9850  -15.6200 O   0  0  0  0  0  0  0  0  0  0  0  0
   -9.3650   16.2740   -6.3250 O   0  0  0  0  0  0  0  0  0  0  0  0
   -7.9750   16.1540   -6.5070 C   0  0  0  0  0  0  0  0  0  0  0  0
   -7.3080   15.3160   -5.4030 C   0  0  0  0  0  0  0  0  0  0  0  0
   -9.1680   13.6600   -0.3380 C   0  0  0  0  0  0  0  0  0  0  0  0
   -8.4020   13.8930   -1.5500 N   0  0  0  0  0  0  0  0  0  0  0  0
   -9.1470   13.4340   -2.7100 C   0  0  0  0  0  0  0  0  0  0  0  0
   -8.3970   13.7210   -4.0180 C   0  0  0  0  0  0  0  0  0  0  0  0
   -8.0750   15.1370   -4.1750 N   0  0  0  0  0  0  0  0  0  0  0  0
   -7.3210   15.5630   -3.0060 C   0  0  0  0  0  0  0  0  0  0  0  0
   -8.0940   15.3040   -1.6990 C   0  0  0  0  0  0  0  0  0  0  0  0
  -10.1450   13.6820  -10.2160 O   0  0  0  0  0  0  0  0  0  0  0  0
   -9.9160   12.3760   -9.7470 C   0  0  0  0  0  0  0  0  0  0  0  0
  -11.0910   11.7960   -8.9580 C   0  0  0  0  0  0  0  0  0  0  0  0
  -10.9510   10.2870   -8.7890 C   0  0  0  0  0  0  0  0  0  0  0  0
  -10.8270    9.6530  -10.0390 O   0  0  0  0  0  0  0  0  0  0  0  0
   -9.6310   10.0340  -10.6630 C   0  0  0  0  0  0  0  0  0  0  0  0
   -9.6770   11.5200  -11.0020 C   0  0  0  0  0  0  0  0  0  0  0  0
 27 28  1  0
 28 29  1  0
 29 30  1  0
 30 31  1  0
 31 26  1  0
 26 25  1  0
 25 24  1  0
 24  1  1  0
  1  2  2  0
  2  3  1  0
  3  4  2  0
  4  5  1  0
  5 34  1  0
 34 35  1  0
 35 36  1  0
 36 37  1  0
 37 38  1  0
 38 39  1  0
 39 40  1  0
  5  6  2  0
  4  7  1  0
  7 12  1  0
 12 14  1  0
 14 15  2  0
 15 16  1  0
 15 17  1  0
 17 18  2  0
 18 19  1  0
 19 20  2  0
 20 21  1  0
 21 22  1  0
 22 23  1  0
  7  8  1  0
  8  9  2  0
  9 10  1  0
 31 32  1  0
 32 33  1  0
 33 28  1  0
  6  1  1  0
 20 14  1  0
 10  3  1  0
 40 35  1  0
 23 19  1  0
 12 13  1  0
 10 11  1  0
M  END
> <meeko>
{"is_sidechain": false}

> <source_group>
FYN canonical

> <source_system>
FYN_saracatinib

> <source_run>
vina_seed2207_ex32

> <source_seed>
2207

> <vina_pose_rank>
1

> <vina_affinity_kcal_mol>
-9.1419999999999995

> <vina_rmsd_to_crystal_angstrom>
1.7567999999999999

> <minimizedAffinity>
-9.14291

> <CNNscore>
0.6420514584

> <CNNaffinity>
7.6017417908

> <CNN_VS>
4.8807091713

> <CNNaffinity_variance>
0.1408491582

$$$$
FYN_saracatinib__vina_seed2207_ex32__pose02


 40 45  0  0  0  0  0  0  0  0999 V2000
  -10.0930   15.9530   -7.3510 C   0  0  0  0  0  0  0  0  0  0  0  0
  -11.1940   16.6580   -7.6380 C   0  0  0  0  0  0  0  0  0  0  0  0
  -11.9100   16.4190   -8.7460 C   0  0  0  0  0  0  0  0  0  0  0  0
  -11.5740   15.4500   -9.6430 C   0  0  0  0  0  0  0  0  0  0  0  0
  -10.4600   14.7150   -9.3680 C   0  0  0  0  0  0  0  0  0  0  0  0
   -9.7670   14.9980   -8.2410 C   0  0  0  0  0  0  0  0  0  0  0  0
  -12.3880   15.3170  -10.7290 C   0  0  0  0  0  0  0  0  0  0  0  0
  -13.3940   16.0980  -10.8130 N   0  0  0  0  0  0  0  0  0  0  0  0
  -13.6200   16.9640   -9.9230 C   0  0  0  0  0  0  0  0  0  0  0  0
  -12.9260   17.1620   -8.8920 N   0  0  0  0  0  0  0  0  0  0  0  0
  -13.1600   17.8570   -8.2350 H   0  0  0  0  0  0  0  0  0  0  0  0
  -12.3950   14.5350  -11.7450 N   0  0  0  0  0  0  0  0  0  0  0  0
  -11.4340   14.4140  -12.1590 H   0  0  0  0  0  0  0  0  0  0  0  0
  -13.2500   13.8510  -12.4090 C   0  0  0  0  0  0  0  0  0  0  0  0
  -13.6910   14.3020  -13.6180 C   0  0  0  0  0  0  0  0  0  0  0  0
  -13.1600   15.7870  -14.3550 Cl  0  0  0  0  0  0  0  0  0  0  0  0
  -14.5790   13.5980  -14.3470 C   0  0  0  0  0  0  0  0  0  0  0  0
  -15.0760   12.4310  -13.9140 C   0  0  0  0  0  0  0  0  0  0  0  0
  -14.6560   11.9810  -12.7290 C   0  0  0  0  0  0  0  0  0  0  0  0
  -13.7720   12.6730  -11.9980 C   0  0  0  0  0  0  0  0  0  0  0  0
  -13.5360   12.0670  -10.9510 O   0  0  0  0  0  0  0  0  0  0  0  0
  -14.3560   10.9000  -10.9050 C   0  0  0  0  0  0  0  0  0  0  0  0
  -15.0020   10.9400  -12.1720 O   0  0  0  0  0  0  0  0  0  0  0  0
   -9.3470   16.1730   -6.2190 O   0  0  0  0  0  0  0  0  0  0  0  0
   -7.9620   15.9490   -6.3440 C   0  0  0  0  0  0  0  0  0  0  0  0
   -7.4170   15.0140   -5.2520 C   0  0  0  0  0  0  0  0  0  0  0  0
   -9.3540   13.7350   -0.1070 C   0  0  0  0  0  0  0  0  0  0  0  0
   -8.5770   13.8650   -1.3270 N   0  0  0  0  0  0  0  0  0  0  0  0
   -9.3380   13.3700   -2.4610 C   0  0  0  0  0  0  0  0  0  0  0  0
   -8.5750   13.5490   -3.7810 C   0  0  0  0  0  0  0  0  0  0  0  0
   -8.1940   14.9380   -4.0190 N   0  0  0  0  0  0  0  0  0  0  0  0
   -7.4250   15.4010   -2.8730 C   0  0  0  0  0  0  0  0  0  0  0  0
   -8.2100   15.2500   -1.5560 C   0  0  0  0  0  0  0  0  0  0  0  0
  -10.0170   13.7200  -10.2190 O   0  0  0  0  0  0  0  0  0  0  0  0
   -9.8810   12.3780   -9.8190 C   0  0  0  0  0  0  0  0  0  0  0  0
  -10.9640   11.9200   -8.8410 C   0  0  0  0  0  0  0  0  0  0  0  0
  -10.9940   10.4000   -8.7250 C   0  0  0  0  0  0  0  0  0  0  0  0
  -11.1760    9.8040   -9.9860 O   0  0  0  0  0  0  0  0  0  0  0  0
  -10.0700   10.0560  -10.8090 C   0  0  0  0  0  0  0  0  0  0  0  0
   -9.9800   11.5490  -11.1100 C   0  0  0  0  0  0  0  0  0  0  0  0
 27 28  1  0
 28 29  1  0
 29 30  1  0
 30 31  1  0
 31 26  1  0
 26 25  1  0
 25 24  1  0
 24  1  1  0
  1  2  2  0
  2  3  1  0
  3  4  2  0
  4  5  1  0
  5 34  1  0
 34 35  1  0
 35 36  1  0
 36 37  1  0
 37 38  1  0
 38 39  1  0
 39 40  1  0
  5  6  2  0
  4  7  1  0
  7 12  1  0
 12 14  1  0
 14 15  2  0
 15 16  1  0
 15 17  1  0
 17 18  2  0
 18 19  1  0
 19 20  2  0
 20 21  1  0
 21 22  1  0
 22 23  1  0
  7  8  1  0
  8  9  2  0
  9 10  1  0
 31 32  1  0
 32 33  1  0
 33 28  1  0
  6  1  1  0
 20 14  1  0
 10  3  1  0
 40 35  1  0
 23 19  1  0
 12 13  1  0
 10 11  1  0
M  END
> <meeko>
{"is_sidechain": false}

> <source_group>
FYN canonical

> <source_system>
FYN_saracatinib

> <source_run>
vina_seed2207_ex32

> <source_seed>
2207

> <vina_pose_rank>
2

> <vina_affinity_kcal_mol>
-9.1140000000000008

> <vina_rmsd_to_crystal_angstrom>
2.7553000000000001

> <minimizedAffinity>
-8.98772

> <CNNscore>
0.7481104136

> <CNNaffinity>
7.7194557190

> <CNN_VS>
5.7750053406

> <CNNaffinity_variance>
0.1424234658

$$$$
FYN_saracatinib__vina_seed2207_ex32__pose03


 40 45  0  0  0  0  0  0  0  0999 V2000
  -10.1260   16.0030   -7.4420 C   0  0  0  0  0  0  0  0  0  0  0  0
  -11.2380   16.6970   -7.7090 C   0  0  0  0  0  0  0  0  0  0  0  0
  -11.9870   16.4330   -8.7890 C   0  0  0  0  0  0  0  0  0  0  0  0
  -11.6740   15.4470   -9.6760 C   0  0  0  0  0  0  0  0  0  0  0  0
  -10.5490   14.7230   -9.4210 C   0  0  0  0  0  0  0  0  0  0  0  0
   -9.8230   15.0320   -8.3230 C   0  0  0  0  0  0  0  0  0  0  0  0
  -12.5200   15.2890  -10.7340 C   0  0  0  0  0  0  0  0  0  0  0  0
  -13.5320   16.0640  -10.8030 N   0  0  0  0  0  0  0  0  0  0  0  0
  -13.7350   16.9470   -9.9240 C   0  0  0  0  0  0  0  0  0  0  0  0
  -13.0100   17.1690   -8.9190 N   0  0  0  0  0  0  0  0  0  0  0  0
  -13.2270   17.8760   -8.2690 H   0  0  0  0  0  0  0  0  0  0  0  0
  -12.5560   14.4870  -11.7340 N   0  0  0  0  0  0  0  0  0  0  0  0
  -11.6360   13.9930  -11.8780 H   0  0  0  0  0  0  0  0  0  0  0  0
  -13.4010   14.1100  -12.6180 C   0  0  0  0  0  0  0  0  0  0  0  0
  -14.1380   12.9810  -12.4180 C   0  0  0  0  0  0  0  0  0  0  0  0
  -14.0150   11.9780  -11.0010 Cl  0  0  0  0  0  0  0  0  0  0  0  0
  -15.0450   12.5660  -13.3240 C   0  0  0  0  0  0  0  0  0  0  0  0
  -15.2570   13.2380  -14.4640 C   0  0  0  0  0  0  0  0  0  0  0  0
  -14.5380   14.3430  -14.6750 C   0  0  0  0  0  0  0  0  0  0  0  0
  -13.6350   14.7640  -13.7790 C   0  0  0  0  0  0  0  0  0  0  0  0
  -13.0980   15.7960  -14.1860 O   0  0  0  0  0  0  0  0  0  0  0  0
  -13.6060   16.0920  -15.4870 C   0  0  0  0  0  0  0  0  0  0  0  0
  -14.5920   15.0810  -15.6580 O   0  0  0  0  0  0  0  0  0  0  0  0
   -9.3460   16.2480   -6.3380 O   0  0  0  0  0  0  0  0  0  0  0  0
   -8.1250   15.5500   -6.2820 C   0  0  0  0  0  0  0  0  0  0  0  0
   -8.0690   14.5590   -5.1080 C   0  0  0  0  0  0  0  0  0  0  0  0
   -7.4920    9.6320   -7.8010 C   0  0  0  0  0  0  0  0  0  0  0  0
   -7.6930   11.0250   -7.4390 N   0  0  0  0  0  0  0  0  0  0  0  0
   -8.8100   11.1470   -6.5190 C   0  0  0  0  0  0  0  0  0  0  0  0
   -9.0150   12.5990   -6.0620 C   0  0  0  0  0  0  0  0  0  0  0  0
   -7.8150   13.1640   -5.4510 N   0  0  0  0  0  0  0  0  0  0  0  0
   -6.7190   13.0370   -6.4000 C   0  0  0  0  0  0  0  0  0  0  0  0
   -6.4970   11.5730   -6.8270 C   0  0  0  0  0  0  0  0  0  0  0  0
  -10.1270   13.7120  -10.2650 O   0  0  0  0  0  0  0  0  0  0  0  0
  -10.0730   12.3620   -9.8730 C   0  0  0  0  0  0  0  0  0  0  0  0
  -11.2780   11.9200   -9.0420 C   0  0  0  0  0  0  0  0  0  0  0  0
  -11.3570   10.3990   -8.9540 C   0  0  0  0  0  0  0  0  0  0  0  0
  -11.3970    9.8240  -10.2380 O   0  0  0  0  0  0  0  0  0  0  0  0
  -10.1920   10.0590  -10.9150 C   0  0  0  0  0  0  0  0  0  0  0  0
  -10.0310   11.5520  -11.1790 C   0  0  0  0  0  0  0  0  0  0  0  0
 27 28  1  0
 28 29  1  0
 29 30  1  0
 30 31  1  0
 31 26  1  0
 26 25  1  0
 25 24  1  0
 24  1  1  0
  1  2  2  0
  2  3  1  0
  3  4  2  0
  4  5  1  0
  5 34  1  0
 34 35  1  0
 35 36  1  0
 36 37  1  0
 37 38  1  0
 38 39  1  0
 39 40  1  0
  5  6  2  0
  4  7  1  0
  7 12  1  0
 12 14  1  0
 14 15  2  0
 15 16  1  0
 15 17  1  0
 17 18  2  0
 18 19  1  0
 19 20  2  0
 20 21  1  0
 21 22  1  0
 22 23  1  0
  7  8  1  0
  8  9  2  0
  9 10  1  0
 31 32  1  0
 32 33  1  0
 33 28  1  0
  6  1  1  0
 20 14  1  0
 10  3  1  0
 40 35  1  0
 23 19  1  0
 12 13  1  0
 10 11  1  0
M  END
> <meeko>
{"is_sidechain": false}

> <source_group>
FYN canonical

> <source_system>
FYN_saracatinib

> <source_run>
vina_seed2207_ex32

> <source_seed>
2207

> <vina_pose_rank>
3

> <vina_affinity_kcal_mol>
-9

> <vina_rmsd_to_crystal_angstrom>
3.1341000000000001

> <minimizedAffinity>
-8.70825

> <CNNscore>
0.4665874541

> <CNNaffinity>
7.4633407593

> <CNN_VS>
3.4823012352

> <CNNaffinity_variance>
0.1373235434

$$$$
FYN_saracatinib__vina_seed2207_ex32__pose04


 40 45  0  0  0  0  0  0  0  0999 V2000
  -10.7500   13.1340   -7.6730 C   0  0  0  0  0  0  0  0  0  0  0  0
  -11.2120   14.3740   -7.8690 C   0  0  0  0  0  0  0  0  0  0  0  0
  -11.7450   14.7470   -9.0410 C   0  0  0  0  0  0  0  0  0  0  0  0
  -11.8580   13.8960  -10.1000 C   0  0  0  0  0  0  0  0  0  0  0  0
  -11.4010   12.6260   -9.9210 C   0  0  0  0  0  0  0  0  0  0  0  0
  -10.8650   12.3000   -8.7230 C   0  0  0  0  0  0  0  0  0  0  0  0
  -12.4160   14.4080  -11.2350 C   0  0  0  0  0  0  0  0  0  0  0  0
  -12.7920   15.6270  -11.2110 N   0  0  0  0  0  0  0  0  0  0  0  0
  -12.6440   16.3320  -10.1750 C   0  0  0  0  0  0  0  0  0  0  0  0
  -12.1390   15.9500   -9.0880 N   0  0  0  0  0  0  0  0  0  0  0  0
  -12.0540   16.5540   -8.3140 H   0  0  0  0  0  0  0  0  0  0  0  0
  -12.6870   13.9220  -12.3900 N   0  0  0  0  0  0  0  0  0  0  0  0
  -11.8590   13.4290  -12.8170 H   0  0  0  0  0  0  0  0  0  0  0  0
  -13.6900   13.8650  -13.1840 C   0  0  0  0  0  0  0  0  0  0  0  0
  -14.6580   12.9240  -12.9900 C   0  0  0  0  0  0  0  0  0  0  0  0
  -14.6360   11.7570  -11.6990 Cl  0  0  0  0  0  0  0  0  0  0  0  0
  -15.7330   12.8480  -13.7990 C   0  0  0  0  0  0  0  0  0  0  0  0
  -15.8930   13.6830  -14.8350 C   0  0  0  0  0  0  0  0  0  0  0  0
  -14.9490   14.6050  -15.0390 C   0  0  0  0  0  0  0  0  0  0  0  0
  -13.8790   14.6900  -14.2380 C   0  0  0  0  0  0  0  0  0  0  0  0
  -13.1500   15.6090  -14.6180 O   0  0  0  0  0  0  0  0  0  0  0  0
  -13.7050   16.1710  -15.8060 C   0  0  0  0  0  0  0  0  0  0  0  0
  -14.9250   15.4480  -15.9340 O   0  0  0  0  0  0  0  0  0  0  0  0
  -10.2070   12.7250   -6.4790 O   0  0  0  0  0  0  0  0  0  0  0  0
   -8.8850   12.2480   -6.5390 C   0  0  0  0  0  0  0  0  0  0  0  0
   -7.8800   13.2180   -5.8950 C   0  0  0  0  0  0  0  0  0  0  0  0
   -8.3520   18.6580   -4.4670 C   0  0  0  0  0  0  0  0  0  0  0  0
   -7.8800   17.3310   -4.8220 N   0  0  0  0  0  0  0  0  0  0  0  0
   -8.3710   16.3530   -3.8670 C   0  0  0  0  0  0  0  0  0  0  0  0
   -7.9460   14.9260   -4.2440 C   0  0  0  0  0  0  0  0  0  0  0  0
   -8.3780   14.5540   -5.5880 N   0  0  0  0  0  0  0  0  0  0  0  0
   -7.8630   15.5450   -6.5210 C   0  0  0  0  0  0  0  0  0  0  0  0
   -8.3220   16.9700   -6.1570 C   0  0  0  0  0  0  0  0  0  0  0  0
  -11.4490   11.6860  -10.9340 O   0  0  0  0  0  0  0  0  0  0  0  0
  -10.8560   10.4140  -10.8250 C   0  0  0  0  0  0  0  0  0  0  0  0
  -11.8530    9.2630  -10.9580 C   0  0  0  0  0  0  0  0  0  0  0  0
  -11.1360    7.9390  -11.1980 C   0  0  0  0  0  0  0  0  0  0  0  0
  -10.3080    8.0150  -12.3320 O   0  0  0  0  0  0  0  0  0  0  0  0
   -9.2650    8.9270  -12.1140 C   0  0  0  0  0  0  0  0  0  0  0  0
   -9.8330   10.3350  -11.9700 C   0  0  0  0  0  0  0  0  0  0  0  0
 27 28  1  0
 28 29  1  0
 29 30  1  0
 30 31  1  0
 31 26  1  0
 26 25  1  0
 25 24  1  0
 24  1  1  0
  1  2  2  0
  2  3  1  0
  3  4  2  0
  4  5  1  0
  5 34  1  0
 34 35  1  0
 35 36  1  0
 36 37  1  0
 37 38  1  0
 38 39  1  0
 39 40  1  0
  5  6  2  0
  4  7  1  0
  7 12  1  0
 12 14  1  0
 14 15  2  0
 15 16  1  0
 15 17  1  0
 17 18  2  0
 18 19  1  0
 19 20  2  0
 20 21  1  0
 21 22  1  0
 22 23  1  0
  7  8  1  0
  8  9  2  0
  9 10  1  0
 31 32  1  0
 32 33  1  0
 33 28  1  0
  6  1  1  0
 20 14  1  0
 10  3  1  0
 40 35  1  0
 23 19  1  0
 12 13  1  0
 10 11  1  0
M  END
> <meeko>
{"is_sidechain": false}

> <source_group>
FYN canonical

> <source_system>
FYN_saracatinib

> <source_run>
vina_seed2207_ex32

> <source_seed>
2207

> <vina_pose_rank>
4

> <vina_affinity_kcal_mol>
-8.9299999999999997

> <vina_rmsd_to_crystal_angstrom>
2.7591999999999999

> <minimizedAffinity>
-8.79279

> <CNNscore>
0.2828281820

> <CNNaffinity>
7.2455573082

> <CNN_VS>
2.0492477417

> <CNNaffinity_variance>
0.1905025691

$$$$
FYN_saracatinib__vina_seed2207_ex32__pose05


 40 45  0  0  0  0  0  0  0  0999 V2000
  -11.3510   15.6290   -9.0290 C   0  0  0  0  0  0  0  0  0  0  0  0
  -12.3860   16.4560   -9.2150 C   0  0  0  0  0  0  0  0  0  0  0  0
  -13.2710   16.2600  -10.2030 C   0  0  0  0  0  0  0  0  0  0  0  0
  -13.1820   15.2140  -11.0720 C   0  0  0  0  0  0  0  0  0  0  0  0
  -12.1400   14.3550  -10.8980 C   0  0  0  0  0  0  0  0  0  0  0  0
  -11.2690   14.5990   -9.8920 C   0  0  0  0  0  0  0  0  0  0  0  0
  -14.1480   15.1370  -12.0330 C   0  0  0  0  0  0  0  0  0  0  0  0
  -15.0530   16.0370  -12.0350 N   0  0  0  0  0  0  0  0  0  0  0  0
  -15.0470   16.9650  -11.1800 C   0  0  0  0  0  0  0  0  0  0  0  0
  -14.1990   17.1210  -10.2630 N   0  0  0  0  0  0  0  0  0  0  0  0
  -14.2540   17.8710   -9.6270 H   0  0  0  0  0  0  0  0  0  0  0  0
  -14.3900   14.3160  -12.9870 N   0  0  0  0  0  0  0  0  0  0  0  0
  -14.2630   13.3130  -12.6890 H   0  0  0  0  0  0  0  0  0  0  0  0
  -14.7470   14.3680  -14.2150 C   0  0  0  0  0  0  0  0  0  0  0  0
  -13.9940   15.0630  -15.1140 C   0  0  0  0  0  0  0  0  0  0  0  0
  -12.5310   15.9140  -14.7050 Cl  0  0  0  0  0  0  0  0  0  0  0  0
  -14.3350   15.1250  -16.4160 C   0  0  0  0  0  0  0  0  0  0  0  0
  -15.4330   14.5150  -16.8840 C   0  0  0  0  0  0  0  0  0  0  0  0
  -16.1820   13.8350  -16.0130 C   0  0  0  0  0  0  0  0  0  0  0  0
  -15.8500   13.7660  -14.7170 C   0  0  0  0  0  0  0  0  0  0  0  0
  -16.6830   13.0900  -14.1110 O   0  0  0  0  0  0  0  0  0  0  0  0
  -17.7110   12.7080  -15.0240 C   0  0  0  0  0  0  0  0  0  0  0  0
  -17.2190   13.2200  -16.2570 O   0  0  0  0  0  0  0  0  0  0  0  0
  -10.4350   15.8030   -8.0200 O   0  0  0  0  0  0  0  0  0  0  0  0
   -9.4500   14.8040   -7.9070 C   0  0  0  0  0  0  0  0  0  0  0  0
   -9.7900   13.7640   -6.8260 C   0  0  0  0  0  0  0  0  0  0  0  0
   -9.0340    8.8480   -9.4940 C   0  0  0  0  0  0  0  0  0  0  0  0
   -9.2630   10.2390   -9.1410 N   0  0  0  0  0  0  0  0  0  0  0  0
  -10.4310   10.3530   -8.2860 C   0  0  0  0  0  0  0  0  0  0  0  0
  -10.6690   11.8020   -7.8380 C   0  0  0  0  0  0  0  0  0  0  0  0
   -9.5100   12.3710   -7.1570 N   0  0  0  0  0  0  0  0  0  0  0  0
   -8.3600   12.2520   -8.0420 C   0  0  0  0  0  0  0  0  0  0  0  0
   -8.1060   10.7910   -8.4600 C   0  0  0  0  0  0  0  0  0  0  0  0
  -11.9420   13.2720  -11.7340 O   0  0  0  0  0  0  0  0  0  0  0  0
  -11.9330   11.9420  -11.2720 C   0  0  0  0  0  0  0  0  0  0  0  0
  -13.3230   11.4100  -10.9190 C   0  0  0  0  0  0  0  0  0  0  0  0
  -13.3110    9.8910  -10.7790 C   0  0  0  0  0  0  0  0  0  0  0  0
  -12.8270    9.2840  -11.9520 O   0  0  0  0  0  0  0  0  0  0  0  0
  -11.4780    9.6130  -12.1510 C   0  0  0  0  0  0  0  0  0  0  0  0
  -11.3470   11.1080  -12.4230 C   0  0  0  0  0  0  0  0  0  0  0  0
 27 28  1  0
 28 29  1  0
 29 30  1  0
 30 31  1  0
 31 26  1  0
 26 25  1  0
 25 24  1  0
 24  1  1  0
  1  2  2  0
  2  3  1  0
  3  4  2  0
  4  5  1  0
  5 34  1  0
 34 35  1  0
 35 36  1  0
 36 37  1  0
 37 38  1  0
 38 39  1  0
 39 40  1  0
  5  6  2  0
  4  7  1  0
  7 12  1  0
 12 14  1  0
 14 15  2  0
 15 16  1  0
 15 17  1  0
 17 18  2  0
 18 19  1  0
 19 20  2  0
 20 21  1  0
 21 22  1  0
 22 23  1  0
  7  8  1  0
  8  9  2  0
  9 10  1  0
 31 32  1  0
 32 33  1  0
 33 28  1  0
  6  1  1  0
 20 14  1  0
 10  3  1  0
 40 35  1  0
 23 19  1  0
 12 13  1  0
 10 11  1  0
M  END
> <meeko>
{"is_sidechain": false}

> <source_group>
FYN canonical

> <source_system>
FYN_saracatinib

> <source_run>
vina_seed2207_ex32

> <source_seed>
2207

> <vina_pose_rank>
5

> <vina_affinity_kcal_mol>
-8.8930000000000007

> <vina_rmsd_to_crystal_angstrom>
4.5353000000000003

> <minimizedAffinity>
-8.58599

> <CNNscore>
0.7423145175

> <CNNaffinity>
7.8132033348

> <CNN_VS>
5.7998542786

> <CNNaffinity_variance>
0.3562546670

$$$$
FYN_saracatinib__vina_seed2207_ex32__pose06


 40 45  0  0  0  0  0  0  0  0999 V2000
  -10.3780   16.2630   -7.4220 C   0  0  0  0  0  0  0  0  0  0  0  0
  -11.5020   16.8940   -7.7820 C   0  0  0  0  0  0  0  0  0  0  0  0
  -12.1620   16.5630   -8.9020 C   0  0  0  0  0  0  0  0  0  0  0  0
  -11.7430   15.5710   -9.7360 C   0  0  0  0  0  0  0  0  0  0  0  0
  -10.6050   14.9110   -9.3860 C   0  0  0  0  0  0  0  0  0  0  0  0
   -9.9700   15.2850   -8.2510 C   0  0  0  0  0  0  0  0  0  0  0  0
  -12.5080   15.3430  -10.8430 C   0  0  0  0  0  0  0  0  0  0  0  0
  -13.5490   16.0640  -11.0010 N   0  0  0  0  0  0  0  0  0  0  0  0
  -13.8520   16.9590  -10.1640 C   0  0  0  0  0  0  0  0  0  0  0  0
  -13.2090   17.2430   -9.1210 N   0  0  0  0  0  0  0  0  0  0  0  0
  -13.5030   17.9560   -8.5080 H   0  0  0  0  0  0  0  0  0  0  0  0
  -12.4370   14.5130  -11.8170 N   0  0  0  0  0  0  0  0  0  0  0  0
  -11.4460   14.3760  -12.1500 H   0  0  0  0  0  0  0  0  0  0  0  0
  -13.2370   13.7950  -12.5120 C   0  0  0  0  0  0  0  0  0  0  0  0
  -13.5890   14.1890  -13.7690 C   0  0  0  0  0  0  0  0  0  0  0  0
  -13.0100   15.6430  -14.5300 Cl  0  0  0  0  0  0  0  0  0  0  0  0
  -14.4180   13.4470  -14.5290 C   0  0  0  0  0  0  0  0  0  0  0  0
  -14.9410   12.2970  -14.0830 C   0  0  0  0  0  0  0  0  0  0  0  0
  -14.6090   11.9030  -12.8500 C   0  0  0  0  0  0  0  0  0  0  0  0
  -13.7840   12.6320  -12.0880 C   0  0  0  0  0  0  0  0  0  0  0  0
  -13.6240   12.0750  -11.0000 O   0  0  0  0  0  0  0  0  0  0  0  0
  -14.4420   10.9060  -10.9630 C   0  0  0  0  0  0  0  0  0  0  0  0
  -14.9920   10.8850  -12.2750 O   0  0  0  0  0  0  0  0  0  0  0  0
   -9.6870   16.5770   -6.2770 O   0  0  0  0  0  0  0  0  0  0  0  0
   -8.3780   16.0680   -6.1920 C   0  0  0  0  0  0  0  0  0  0  0  0
   -8.1800   15.1550   -4.9700 C   0  0  0  0  0  0  0  0  0  0  0  0
   -7.4970   10.1230   -7.4340 C   0  0  0  0  0  0  0  0  0  0  0  0
   -7.7370   11.5240   -7.1350 N   0  0  0  0  0  0  0  0  0  0  0  0
   -8.8360   11.6550   -6.1950 C   0  0  0  0  0  0  0  0  0  0  0  0
   -9.0800   13.1200   -5.8040 C   0  0  0  0  0  0  0  0  0  0  0  0
   -7.8870   13.7540   -5.2510 N   0  0  0  0  0  0  0  0  0  0  0  0
   -6.8090   13.6160   -6.2190 C   0  0  0  0  0  0  0  0  0  0  0  0
   -6.5470   12.1420   -6.5800 C   0  0  0  0  0  0  0  0  0  0  0  0
  -10.0790   13.9010  -10.1690 O   0  0  0  0  0  0  0  0  0  0  0  0
   -9.9850   12.5660   -9.7330 C   0  0  0  0  0  0  0  0  0  0  0  0
  -11.1960   12.1030   -8.9210 C   0  0  0  0  0  0  0  0  0  0  0  0
  -11.2200   10.5850   -8.7870 C   0  0  0  0  0  0  0  0  0  0  0  0
  -11.2040    9.9700  -10.0530 O   0  0  0  0  0  0  0  0  0  0  0  0
   -9.9900   10.2290  -10.7050 C   0  0  0  0  0  0  0  0  0  0  0  0
   -9.8780   11.7190  -11.0120 C   0  0  0  0  0  0  0  0  0  0  0  0
 27 28  1  0
 28 29  1  0
 29 30  1  0
 30 31  1  0
 31 26  1  0
 26 25  1  0
 25 24  1  0
 24  1  1  0
  1  2  2  0
  2  3  1  0
  3  4  2  0
  4  5  1  0
  5 34  1  0
 34 35  1  0
 35 36  1  0
 36 37  1  0
 37 38  1  0
 38 39  1  0
 39 40  1  0
  5  6  2  0
  4  7  1  0
  7 12  1  0
 12 14  1  0
 14 15  2  0
 15 16  1  0
 15 17  1  0
 17 18  2  0
 18 19  1  0
 19 20  2  0
 20 21  1  0
 21 22  1  0
 22 23  1  0
  7  8  1  0
  8  9  2  0
  9 10  1  0
 31 32  1  0
 32 33  1  0
 33 28  1  0
  6  1  1  0
 20 14  1  0
 10  3  1  0
 40 35  1  0
 23 19  1  0
 12 13  1  0
 10 11  1  0
M  END
> <meeko>
{"is_sidechain": false}

> <source_group>
FYN canonical

> <source_system>
FYN_saracatinib

> <source_run>
vina_seed2207_ex32

> <source_seed>
2207

> <vina_pose_rank>
6

> <vina_affinity_kcal_mol>
-8.8789999999999996

> <vina_rmsd_to_crystal_angstrom>
3.4822000000000002

> <minimizedAffinity>
-8.44370

> <CNNscore>
0.5101663470

> <CNNaffinity>
7.3690543175

> <CNN_VS>
3.7594435215

> <CNNaffinity_variance>
0.3800702393

$$$$
FYN_saracatinib__vina_seed2207_ex32__pose07


 40 45  0  0  0  0  0  0  0  0999 V2000
   -9.9540   15.6800   -7.3920 C   0  0  0  0  0  0  0  0  0  0  0  0
  -11.0290   16.4400   -7.6300 C   0  0  0  0  0  0  0  0  0  0  0  0
  -11.7830   16.2650   -8.7250 C   0  0  0  0  0  0  0  0  0  0  0  0
  -11.5130   15.3090   -9.6570 C   0  0  0  0  0  0  0  0  0  0  0  0
  -10.4270   14.5180   -9.4330 C   0  0  0  0  0  0  0  0  0  0  0  0
   -9.6930   14.7380   -8.3170 C   0  0  0  0  0  0  0  0  0  0  0  0
  -12.3590   15.2440  -10.7250 C   0  0  0  0  0  0  0  0  0  0  0  0
  -13.3310   16.0700  -10.7610 N   0  0  0  0  0  0  0  0  0  0  0  0
  -13.4960   16.9180   -9.8410 C   0  0  0  0  0  0  0  0  0  0  0  0
  -12.7680   17.0560   -8.8240 N   0  0  0  0  0  0  0  0  0  0  0  0
  -12.9540   17.7410   -8.1410 H   0  0  0  0  0  0  0  0  0  0  0  0
  -12.4270   14.4930  -11.7620 N   0  0  0  0  0  0  0  0  0  0  0  0
  -11.4930   14.0700  -12.0080 H   0  0  0  0  0  0  0  0  0  0  0  0
  -13.3180   14.1060  -12.5960 C   0  0  0  0  0  0  0  0  0  0  0  0
  -14.0470   12.9820  -12.3410 C   0  0  0  0  0  0  0  0  0  0  0  0
  -13.8540   12.0010  -10.9160 Cl  0  0  0  0  0  0  0  0  0  0  0  0
  -15.0010   12.5570  -13.1920 C   0  0  0  0  0  0  0  0  0  0  0  0
  -15.2700   13.2110  -14.3300 C   0  0  0  0  0  0  0  0  0  0  0  0
  -14.5590   14.3100  -14.5940 C   0  0  0  0  0  0  0  0  0  0  0  0
  -13.6100   14.7420  -13.7530 C   0  0  0  0  0  0  0  0  0  0  0  0
  -13.0930   15.7660  -14.2040 O   0  0  0  0  0  0  0  0  0  0  0  0
  -13.6660   16.0430  -15.4810 C   0  0  0  0  0  0  0  0  0  0  0  0
  -14.6620   15.0330  -15.5850 O   0  0  0  0  0  0  0  0  0  0  0  0
   -9.1710   15.8330   -6.2740 O   0  0  0  0  0  0  0  0  0  0  0  0
   -8.3260   16.9590   -6.2670 C   0  0  0  0  0  0  0  0  0  0  0  0
   -7.4340   17.0160   -5.0150 C   0  0  0  0  0  0  0  0  0  0  0  0
   -7.1860   22.5800   -4.1000 C   0  0  0  0  0  0  0  0  0  0  0  0
   -7.5230   21.2400   -4.5470 N   0  0  0  0  0  0  0  0  0  0  0  0
   -6.3810   20.6270   -5.2010 C   0  0  0  0  0  0  0  0  0  0  0  0
   -6.6790   19.1830   -5.6320 C   0  0  0  0  0  0  0  0  0  0  0  0
   -7.1070   18.3470   -4.5150 N   0  0  0  0  0  0  0  0  0  0  0  0
   -8.2570   18.9810   -3.8880 C   0  0  0  0  0  0  0  0  0  0  0  0
   -7.9410   20.4160   -3.4270 C   0  0  0  0  0  0  0  0  0  0  0  0
  -10.0500   13.5300  -10.3220 O   0  0  0  0  0  0  0  0  0  0  0  0
   -9.9430   12.1750   -9.9590 C   0  0  0  0  0  0  0  0  0  0  0  0
  -10.9750   11.7400   -8.9170 C   0  0  0  0  0  0  0  0  0  0  0  0
  -11.0610   10.2200   -8.8280 C   0  0  0  0  0  0  0  0  0  0  0  0
  -11.3540    9.6600  -10.0850 O   0  0  0  0  0  0  0  0  0  0  0  0
  -10.2970    9.8850  -10.9780 C   0  0  0  0  0  0  0  0  0  0  0  0
  -10.1650   11.3790  -11.2560 C   0  0  0  0  0  0  0  0  0  0  0  0
 27 28  1  0
 28 29  1  0
 29 30  1  0
 30 31  1  0
 31 26  1  0
 26 25  1  0
 25 24  1  0
 24  1  1  0
  1  2  2  0
  2  3  1  0
  3  4  2  0
  4  5  1  0
  5 34  1  0
 34 35  1  0
 35 36  1  0
 36 37  1  0
 37 38  1  0
 38 39  1  0
 39 40  1  0
  5  6  2  0
  4  7  1  0
  7 12  1  0
 12 14  1  0
 14 15  2  0
 15 16  1  0
 15 17  1  0
 17 18  2  0
 18 19  1  0
 19 20  2  0
 20 21  1  0
 21 22  1  0
 22 23  1  0
  7  8  1  0
  8  9  2  0
  9 10  1  0
 31 32  1  0
 32 33  1  0
 33 28  1  0
  6  1  1  0
 20 14  1  0
 10  3  1  0
 40 35  1  0
 23 19  1  0
 12 13  1  0
 10 11  1  0
M  END
> <meeko>
{"is_sidechain": false}

> <source_group>
FYN canonical

> <source_system>
FYN_saracatinib

> <source_run>
vina_seed2207_ex32

> <source_seed>
2207

> <vina_pose_rank>
7

> <vina_affinity_kcal_mol>
-8.8499999999999996

> <vina_rmsd_to_crystal_angstrom>
2.1751999999999998

> <minimizedAffinity>
-8.93072

> <CNNscore>
0.5906072259

> <CNNaffinity>
7.3557491302

> <CNN_VS>
4.3443584442

> <CNNaffinity_variance>
0.1795975566

$$$$
FYN_saracatinib__vina_seed2207_ex32__pose08


 40 45  0  0  0  0  0  0  0  0999 V2000
  -11.3670   15.6990   -8.8950 C   0  0  0  0  0  0  0  0  0  0  0  0
  -12.3950   16.5280   -9.1080 C   0  0  0  0  0  0  0  0  0  0  0  0
  -13.2630   16.3240  -10.1100 C   0  0  0  0  0  0  0  0  0  0  0  0
  -13.1630   15.2680  -10.9650 C   0  0  0  0  0  0  0  0  0  0  0  0
  -12.1270   14.4070  -10.7630 C   0  0  0  0  0  0  0  0  0  0  0  0
  -11.2740   14.6590   -9.7440 C   0  0  0  0  0  0  0  0  0  0  0  0
  -14.1110   15.1840  -11.9420 C   0  0  0  0  0  0  0  0  0  0  0  0
  -15.0120   16.0870  -11.9710 N   0  0  0  0  0  0  0  0  0  0  0  0
  -15.0180   17.0250  -11.1270 C   0  0  0  0  0  0  0  0  0  0  0  0
  -14.1860   17.1870  -10.1970 N   0  0  0  0  0  0  0  0  0  0  0  0
  -14.2490   17.9450   -9.5700 H   0  0  0  0  0  0  0  0  0  0  0  0
  -14.3400   14.3530  -12.8910 N   0  0  0  0  0  0  0  0  0  0  0  0
  -14.1500   13.3570  -12.6010 H   0  0  0  0  0  0  0  0  0  0  0  0
  -14.7370   14.3880  -14.1080 C   0  0  0  0  0  0  0  0  0  0  0  0
  -13.9950   15.0390  -15.0480 C   0  0  0  0  0  0  0  0  0  0  0  0
  -12.4940   15.8520  -14.7090 Cl  0  0  0  0  0  0  0  0  0  0  0  0
  -14.3800   15.0820  -16.3390 C   0  0  0  0  0  0  0  0  0  0  0  0
  -15.5110   14.4960  -16.7540 C   0  0  0  0  0  0  0  0  0  0  0  0
  -16.2500   13.8600  -15.8420 C   0  0  0  0  0  0  0  0  0  0  0  0
  -15.8750   13.8100  -14.5570 C   0  0  0  0  0  0  0  0  0  0  0  0
  -16.7070   13.1740  -13.9070 O   0  0  0  0  0  0  0  0  0  0  0  0
  -17.7770   12.8040  -14.7750 C   0  0  0  0  0  0  0  0  0  0  0  0
  -17.3130   13.2720  -16.0360 O   0  0  0  0  0  0  0  0  0  0  0  0
  -10.4680   15.8800   -7.8710 O   0  0  0  0  0  0  0  0  0  0  0  0
   -9.5640   14.8240   -7.6550 C   0  0  0  0  0  0  0  0  0  0  0  0
   -8.4690   15.1880   -6.6380 C   0  0  0  0  0  0  0  0  0  0  0  0
   -8.4140   13.9520   -1.1300 C   0  0  0  0  0  0  0  0  0  0  0  0
   -8.0840   14.1750   -2.5270 N   0  0  0  0  0  0  0  0  0  0  0  0
   -8.9300   13.3570   -3.3790 C   0  0  0  0  0  0  0  0  0  0  0  0
   -8.6550   13.6120   -4.8680 C   0  0  0  0  0  0  0  0  0  0  0  0
   -8.8130   15.0180   -5.2300 N   0  0  0  0  0  0  0  0  0  0  0  0
   -7.9460   15.8080   -4.3680 C   0  0  0  0  0  0  0  0  0  0  0  0
   -8.2500   15.5740   -2.8770 C   0  0  0  0  0  0  0  0  0  0  0  0
  -11.9190   13.3130  -11.5820 O   0  0  0  0  0  0  0  0  0  0  0  0
  -11.9920   11.9870  -11.1200 C   0  0  0  0  0  0  0  0  0  0  0  0
  -13.4230   11.5060  -10.8700 C   0  0  0  0  0  0  0  0  0  0  0  0
  -13.4760    9.9890  -10.7270 C   0  0  0  0  0  0  0  0  0  0  0  0
  -12.9300    9.3600  -11.8600 O   0  0  0  0  0  0  0  0  0  0  0  0
  -11.5590    9.6390  -11.9590 C   0  0  0  0  0  0  0  0  0  0  0  0
  -11.3540   11.1270  -12.2230 C   0  0  0  0  0  0  0  0  0  0  0  0
 27 28  1  0
 28 29  1  0
 29 30  1  0
 30 31  1  0
 31 26  1  0
 26 25  1  0
 25 24  1  0
 24  1  1  0
  1  2  2  0
  2  3  1  0
  3  4  2  0
  4  5  1  0
  5 34  1  0
 34 35  1  0
 35 36  1  0
 36 37  1  0
 37 38  1  0
 38 39  1  0
 39 40  1  0
  5  6  2  0
  4  7  1  0
  7 12  1  0
 12 14  1  0
 14 15  2  0
 15 16  1  0
 15 17  1  0
 17 18  2  0
 18 19  1  0
 19 20  2  0
 20 21  1  0
 21 22  1  0
 22 23  1  0
  7  8  1  0
  8  9  2  0
  9 10  1  0
 31 32  1  0
 32 33  1  0
 33 28  1  0
  6  1  1  0
 20 14  1  0
 10  3  1  0
 40 35  1  0
 23 19  1  0
 12 13  1  0
 10 11  1  0
M  END
> <meeko>
{"is_sidechain": false}

> <source_group>
FYN canonical

> <source_system>
FYN_saracatinib

> <source_run>
vina_seed2207_ex32

> <source_seed>
2207

> <vina_pose_rank>
8

> <vina_affinity_kcal_mol>
-8.766

> <vina_rmsd_to_crystal_angstrom>
2.9367999999999999

> <minimizedAffinity>
-8.85653

> <CNNscore>
0.7945404649

> <CNNaffinity>
7.9286923409

> <CNN_VS>
6.2996668816

> <CNNaffinity_variance>
0.2101259232

$$$$
FYN_saracatinib__vina_seed2207_ex32__pose09


 40 45  0  0  0  0  0  0  0  0999 V2000
  -10.4780   13.0910   -7.6040 C   0  0  0  0  0  0  0  0  0  0  0  0
  -11.0030   14.3150   -7.7280 C   0  0  0  0  0  0  0  0  0  0  0  0
  -11.5810   14.7170   -8.8690 C   0  0  0  0  0  0  0  0  0  0  0  0
  -11.6780   13.9150   -9.9660 C   0  0  0  0  0  0  0  0  0  0  0  0
  -11.1570   12.6610   -9.8610 C   0  0  0  0  0  0  0  0  0  0  0  0
  -10.5770   12.3040   -8.6920 C   0  0  0  0  0  0  0  0  0  0  0  0
  -12.2880   14.4530  -11.0620 C   0  0  0  0  0  0  0  0  0  0  0  0
  -12.7210   15.6500  -10.9700 N   0  0  0  0  0  0  0  0  0  0  0  0
  -12.5830   16.3090   -9.9030 C   0  0  0  0  0  0  0  0  0  0  0  0
  -12.0340   15.9010   -8.8470 N   0  0  0  0  0  0  0  0  0  0  0  0
  -11.9600   16.4700   -8.0470 H   0  0  0  0  0  0  0  0  0  0  0  0
  -12.5620   14.0110  -12.2340 N   0  0  0  0  0  0  0  0  0  0  0  0
  -11.7120   13.6210  -12.7190 H   0  0  0  0  0  0  0  0  0  0  0  0
  -13.5880   13.9080  -12.9930 C   0  0  0  0  0  0  0  0  0  0  0  0
  -14.5290   12.9550  -12.7390 C   0  0  0  0  0  0  0  0  0  0  0  0
  -14.4410   11.8290  -11.4140 Cl  0  0  0  0  0  0  0  0  0  0  0  0
  -15.6270   12.8310  -13.5110 C   0  0  0  0  0  0  0  0  0  0  0  0
  -15.8380   13.6300  -14.5660 C   0  0  0  0  0  0  0  0  0  0  0  0
  -14.9200   14.5650  -14.8280 C   0  0  0  0  0  0  0  0  0  0  0  0
  -13.8280   14.6970  -14.0650 C   0  0  0  0  0  0  0  0  0  0  0  0
  -13.1310   15.6180  -14.4960 O   0  0  0  0  0  0  0  0  0  0  0  0
  -13.7360   16.1310  -15.6830 C   0  0  0  0  0  0  0  0  0  0  0  0
  -14.9430   15.3800  -15.7490 O   0  0  0  0  0  0  0  0  0  0  0  0
   -9.8870   12.6520   -6.4440 O   0  0  0  0  0  0  0  0  0  0  0  0
   -9.0010   13.5550   -5.8280 C   0  0  0  0  0  0  0  0  0  0  0  0
   -8.7300   13.1990   -4.3560 C   0  0  0  0  0  0  0  0  0  0  0  0
   -7.9330   17.5880   -0.8980 C   0  0  0  0  0  0  0  0  0  0  0  0
   -8.4800   16.5000   -1.6910 N   0  0  0  0  0  0  0  0  0  0  0  0
   -8.1800   16.7050   -3.0970 C   0  0  0  0  0  0  0  0  0  0  0  0
   -8.6870   15.5420   -3.9620 C   0  0  0  0  0  0  0  0  0  0  0  0
   -8.1510   14.2540   -3.5320 N   0  0  0  0  0  0  0  0  0  0  0  0
   -8.4770   14.0740   -2.1250 C   0  0  0  0  0  0  0  0  0  0  0  0
   -7.9350   15.2260   -1.2580 C   0  0  0  0  0  0  0  0  0  0  0  0
  -11.1830   11.7700  -10.9180 O   0  0  0  0  0  0  0  0  0  0  0  0
  -10.7210   10.4460  -10.8130 C   0  0  0  0  0  0  0  0  0  0  0  0
  -11.8380    9.4030  -10.8700 C   0  0  0  0  0  0  0  0  0  0  0  0
  -11.2760    8.0070  -11.1170 C   0  0  0  0  0  0  0  0  0  0  0  0
  -10.5060    7.9790  -12.2950 O   0  0  0  0  0  0  0  0  0  0  0  0
   -9.3640    8.7790  -12.1500 C   0  0  0  0  0  0  0  0  0  0  0  0
   -9.7740   10.2410  -12.0070 C   0  0  0  0  0  0  0  0  0  0  0  0
 27 28  1  0
 28 29  1  0
 29 30  1  0
 30 31  1  0
 31 26  1  0
 26 25  1  0
 25 24  1  0
 24  1  1  0
  1  2  2  0
  2  3  1  0
  3  4  2  0
  4  5  1  0
  5 34  1  0
 34 35  1  0
 35 36  1  0
 36 37  1  0
 37 38  1  0
 38 39  1  0
 39 40  1  0
  5  6  2  0
  4  7  1  0
  7 12  1  0
 12 14  1  0
 14 15  2  0
 15 16  1  0
 15 17  1  0
 17 18  2  0
 18 19  1  0
 19 20  2  0
 20 21  1  0
 21 22  1  0
 22 23  1  0
  7  8  1  0
  8  9  2  0
  9 10  1  0
 31 32  1  0
 32 33  1  0
 33 28  1  0
  6  1  1  0
 20 14  1  0
 10  3  1  0
 40 35  1  0
 23 19  1  0
 12 13  1  0
 10 11  1  0
M  END
> <meeko>
{"is_sidechain": false}

> <source_group>
FYN canonical

> <source_system>
FYN_saracatinib

> <source_run>
vina_seed2207_ex32

> <source_seed>
2207

> <vina_pose_rank>
9

> <vina_affinity_kcal_mol>
-8.7070000000000007

> <vina_rmsd_to_crystal_angstrom>
2.5280999999999998

> <minimizedAffinity>
-8.75234

> <CNNscore>
0.2266144902

> <CNNaffinity>
7.0856060982

> <CNN_VS>
1.6057009697

> <CNNaffinity_variance>
0.1749472171

$$$$
FYN_saracatinib__vina_seed2207_ex32__pose10


 40 45  0  0  0  0  0  0  0  0999 V2000
  -12.2050   15.8510   -9.8550 C   0  0  0  0  0  0  0  0  0  0  0  0
  -12.0230   16.7440   -8.8760 C   0  0  0  0  0  0  0  0  0  0  0  0
  -11.0300   16.6140   -7.9850 C   0  0  0  0  0  0  0  0  0  0  0  0
  -10.1450   15.5780   -8.0160 C   0  0  0  0  0  0  0  0  0  0  0  0
  -10.3080   14.6600   -9.0080 C   0  0  0  0  0  0  0  0  0  0  0  0
  -11.3280   14.8300   -9.8800 C   0  0  0  0  0  0  0  0  0  0  0  0
   -9.1870   15.5670   -7.0460 C   0  0  0  0  0  0  0  0  0  0  0  0
   -9.1910   16.5220   -6.1990 N   0  0  0  0  0  0  0  0  0  0  0  0
  -10.0550   17.4390   -6.2590 C   0  0  0  0  0  0  0  0  0  0  0  0
  -10.9760   17.5320   -7.1120 N   0  0  0  0  0  0  0  0  0  0  0  0
  -11.6200   18.2770   -7.1010 H   0  0  0  0  0  0  0  0  0  0  0  0
   -8.2090   14.7840   -6.7700 N   0  0  0  0  0  0  0  0  0  0  0  0
   -8.1260   13.9940   -7.4620 H   0  0  0  0  0  0  0  0  0  0  0  0
   -7.2930   14.6880   -5.8810 C   0  0  0  0  0  0  0  0  0  0  0  0
   -7.5060   13.9390   -4.7620 C   0  0  0  0  0  0  0  0  0  0  0  0
   -8.9800   13.0710   -4.4390 Cl  0  0  0  0  0  0  0  0  0  0  0  0
   -6.5570   13.8070   -3.8150 C   0  0  0  0  0  0  0  0  0  0  0  0
   -5.3660   14.4120   -3.9250 C   0  0  0  0  0  0  0  0  0  0  0  0
   -5.1460   15.1530   -5.0140 C   0  0  0  0  0  0  0  0  0  0  0  0
   -6.0830   15.2880   -5.9610 C   0  0  0  0  0  0  0  0  0  0  0  0
   -5.6580   16.0120   -6.8640 O   0  0  0  0  0  0  0  0  0  0  0  0
   -4.3580   16.4760   -6.5030 C   0  0  0  0  0  0  0  0  0  0  0  0
   -4.1230   15.7800   -5.2840 O   0  0  0  0  0  0  0  0  0  0  0  0
  -13.2090   15.9650  -10.7860 O   0  0  0  0  0  0  0  0  0  0  0  0
  -13.2580   14.9530  -11.7620 C   0  0  0  0  0  0  0  0  0  0  0  0
  -13.3860   15.5170  -13.1870 C   0  0  0  0  0  0  0  0  0  0  0  0
  -17.4700   12.5950  -15.7640 C   0  0  0  0  0  0  0  0  0  0  0  0
  -16.3210   13.0230  -14.9850 N   0  0  0  0  0  0  0  0  0  0  0  0
  -15.3700   13.7180  -15.8340 C   0  0  0  0  0  0  0  0  0  0  0  0
  -14.1690   14.2430  -15.0340 C   0  0  0  0  0  0  0  0  0  0  0  0
  -14.5720   15.1170  -13.9370 N   0  0  0  0  0  0  0  0  0  0  0  0
  -15.5150   14.3910  -13.0990 C   0  0  0  0  0  0  0  0  0  0  0  0
  -16.7340   13.8970  -13.9020 C   0  0  0  0  0  0  0  0  0  0  0  0
   -9.4790   13.5590   -9.1240 O   0  0  0  0  0  0  0  0  0  0  0  0
   -9.7510   12.4850   -9.9910 C   0  0  0  0  0  0  0  0  0  0  0  0
   -8.6100   12.1830  -10.9640 C   0  0  0  0  0  0  0  0  0  0  0  0
   -8.7920   10.8170  -11.6180 C   0  0  0  0  0  0  0  0  0  0  0  0
   -8.8990    9.8070  -10.6450 O   0  0  0  0  0  0  0  0  0  0  0  0
  -10.0690    9.9760   -9.8920 C   0  0  0  0  0  0  0  0  0  0  0  0
   -9.9800   11.2660   -9.0830 C   0  0  0  0  0  0  0  0  0  0  0  0
 27 28  1  0
 28 29  1  0
 29 30  1  0
 30 31  1  0
 31 26  1  0
 26 25  1  0
 25 24  1  0
 24  1  1  0
  1  2  2  0
  2  3  1  0
  3  4  2  0
  4  5  1  0
  5 34  1  0
 34 35  1  0
 35 36  1  0
 36 37  1  0
 37 38  1  0
 38 39  1  0
 39 40  1  0
  5  6  2  0
  4  7  1  0
  7 12  1  0
 12 14  1  0
 14 15  2  0
 15 16  1  0
 15 17  1  0
 17 18  2  0
 18 19  1  0
 19 20  2  0
 20 21  1  0
 21 22  1  0
 22 23  1  0
  7  8  1  0
  8  9  2  0
  9 10  1  0
 31 32  1  0
 32 33  1  0
 33 28  1  0
  6  1  1  0
 20 14  1  0
 10  3  1  0
 40 35  1  0
 23 19  1  0
 12 13  1  0
 10 11  1  0
M  END
> <meeko>
{"is_sidechain": false}

> <source_group>
FYN canonical

> <source_system>
FYN_saracatinib

> <source_run>
vina_seed2207_ex32

> <source_seed>
2207

> <vina_pose_rank>
10

> <vina_affinity_kcal_mol>
-8.4819999999999993

> <vina_rmsd_to_crystal_angstrom>
9.4307999999999996

> <minimizedAffinity>
-8.62741

> <CNNscore>
0.0877591595

> <CNNaffinity>
6.0554714203

> <CNN_VS>
0.5314230919

> <CNNaffinity_variance>
1.2014979124

$$$$
