BACE1_verubecestat__alternate_476_seed5519_ex32__pose01
     RDKit          3D

 45 47  0  0  0  0  0  0  0  0999 V2000
   27.6540   13.7860   24.5020 C   0  0  0  0  0  0  0  0  0  0  0  0
   26.9710   13.8940   23.1980 N   0  0  0  0  0  0  0  0  0  0  0  0
   25.8750   14.7570   22.9720 C   0  0  0  0  0  0  0  0  0  0  0  0
   25.6010   15.5930   24.0210 N   0  0  0  0  0  0  0  0  0  0  0  0
   25.1960   14.7860   21.8670 N   0  0  0  0  0  0  0  0  0  0  0  0
   25.4370   13.8260   20.7910 C   0  0  2  0  0  0  0  0  0  0  0  0
   24.7960   14.5030   19.5770 C   0  0  0  0  0  0  0  0  0  0  0  0
   24.7350   12.5000   21.0410 C   0  0  0  0  0  0  0  0  0  0  0  0
   24.0380   12.2670   22.2260 C   0  0  0  0  0  0  0  0  0  0  0  0
   23.3960   11.0760   22.4800 C   0  0  0  0  0  0  0  0  0  0  0  0
   22.7300   10.9720   23.7080 N   0  0  0  0  0  0  0  0  0  0  0  0
   23.2240   11.2240   24.9760 C   0  0  0  0  0  0  0  0  0  0  0  0
   24.3950   11.4630   25.2400 O   0  0  0  0  0  0  0  0  0  0  0  0
   22.2120   11.2290   26.0600 C   0  0  0  0  0  0  0  0  0  0  0  0
   20.9110   10.8410   25.7930 C   0  0  0  0  0  0  0  0  0  0  0  0
   20.0080   10.8660   26.8420 C   0  0  0  0  0  0  0  0  0  0  0  0
   20.4240   11.2650   28.0980 C   0  0  0  0  0  0  0  0  0  0  0  0
   19.5810   11.3150   29.1440 F   0  0  0  0  0  0  0  0  0  0  0  0
   21.7380   11.6390   28.2630 C   0  0  0  0  0  0  0  0  0  0  0  0
   22.6350   11.6300   27.2640 N   0  0  0  0  0  0  0  0  0  0  0  0
   23.4040   10.0570   21.5360 C   0  0  0  0  0  0  0  0  0  0  0  0
   24.0940   10.2700   20.3560 C   0  0  0  0  0  0  0  0  0  0  0  0
   24.7610   11.4570   20.1280 C   0  0  0  0  0  0  0  0  0  0  0  0
   25.4550   11.6300   18.9740 F   0  0  0  0  0  0  0  0  0  0  0  0
   26.9190   13.7230   20.5100 C   0  0  0  0  0  0  0  0  0  0  0  0
   27.7820   13.0740   21.9200 S   0  0  0  0  0  0  0  0  0  0  0  0
   29.1320   13.6020   21.8580 O   0  0  0  0  0  0  0  0  0  0  0  0
   27.4660   11.6970   22.1430 O   0  0  0  0  0  0  0  0  0  0  0  0
   26.9187   13.9023   25.3118 H   0  0  0  0  0  0  0  0  0  0  0  0
   28.1359   12.8005   24.5830 H   0  0  0  0  0  0  0  0  0  0  0  0
   28.4164   14.5747   24.5830 H   0  0  0  0  0  0  0  0  0  0  0  0
   24.8540   16.2320   23.9580 H   0  0  0  0  0  0  0  0  0  0  0  0
   26.1490   15.5550   24.8370 H   0  0  0  0  0  0  0  0  0  0  0  0
   24.0769   15.2624   19.9179 H   0  0  0  0  0  0  0  0  0  0  0  0
   25.5774   14.9840   18.9704 H   0  0  0  0  0  0  0  0  0  0  0  0
   24.2730   13.7490   18.9704 H   0  0  0  0  0  0  0  0  0  0  0  0
   23.9998   13.0628   22.9845 H   0  0  0  0  0  0  0  0  0  0  0  0
   21.7890   10.6830   23.6630 H   0  0  0  0  0  0  0  0  0  0  0  0
   20.6056   10.5245   24.7848 H   0  0  0  0  0  0  0  0  0  0  0  0
   18.9619   10.5690   26.6762 H   0  0  0  0  0  0  0  0  0  0  0  0
   22.0694   11.9608   29.2613 H   0  0  0  0  0  0  0  0  0  0  0  0
   22.8775    9.1091   21.7212 H   0  0  0  0  0  0  0  0  0  0  0  0
   24.1114    9.4823   19.5884 H   0  0  0  0  0  0  0  0  0  0  0  0
   27.0779   13.0551   19.6506 H   0  0  0  0  0  0  0  0  0  0  0  0
   27.3077   14.7281   20.2894 H   0  0  0  0  0  0  0  0  0  0  0  0
  1  2  1  0
  2  3  1  0
  3  4  1  0
  3  5  2  0
  5  6  1  0
  6  7  1  6
  6  8  1  0
  8  9  2  0
  9 10  1  0
 10 11  1  0
 11 12  1  0
 12 13  2  0
 12 14  1  0
 14 15  2  0
 15 16  1  0
 16 17  2  0
 17 18  1  0
 17 19  1  0
 19 20  2  0
 10 21  2  0
 21 22  1  0
 22 23  2  0
 23 24  1  0
  6 25  1  0
 25 26  1  0
 26 27  2  0
 26 28  2  0
 26  2  1  0
 23  8  1  0
 20 14  1  0
  1 29  1  0
  1 30  1  0
  1 31  1  0
  4 32  1  0
  4 33  1  0
  7 34  1  0
  7 35  1  0
  7 36  1  0
  9 37  1  0
 11 38  1  0
 15 39  1  0
 16 40  1  0
 19 41  1  0
 21 42  1  0
 22 43  1  0
 25 44  1  0
 25 45  1  0
M  END
>  <meeko>  (1)
{"is_sidechain": false}

>  <source_group>  (1)
BACE1-476

>  <source_system>  (1)
BACE1_verubecestat

>  <source_run>  (1)
alternate_476_seed5519_ex32

>  <source_seed>  (1)
5519

>  <vina_pose_rank>  (1)
1

>  <vina_affinity_kcal_mol>  (1)
-9.1739999999999995

>  <vina_rmsd_to_crystal_angstrom>  (1)
7.1319999999999997

$$$$
BACE1_verubecestat__alternate_476_seed5519_ex32__pose02
     RDKit          3D

 45 47  0  0  0  0  0  0  0  0999 V2000
   29.0660   12.2040   23.3800 C   0  0  0  0  0  0  0  0  0  0  0  0
   28.1010   12.5710   22.3240 N   0  0  0  0  0  0  0  0  0  0  0  0
   27.3970   13.7960   22.3170 C   0  0  0  0  0  0  0  0  0  0  0  0
   27.7990   14.6740   23.2880 N   0  0  0  0  0  0  0  0  0  0  0  0
   26.4680   14.0890   21.4600 N   0  0  0  0  0  0  0  0  0  0  0  0
   25.9820   13.1100   20.4890 C   0  0  2  0  0  0  0  0  0  0  0  0
   25.2950   13.9830   19.4360 C   0  0  0  0  0  0  0  0  0  0  0  0
   24.9520   12.1690   21.0950 C   0  0  0  0  0  0  0  0  0  0  0  0
   24.5290   12.3180   22.4150 C   0  0  0  0  0  0  0  0  0  0  0  0
   23.6010   11.4800   22.9900 C   0  0  0  0  0  0  0  0  0  0  0  0
   23.2610   11.7400   24.3240 N   0  0  0  0  0  0  0  0  0  0  0  0
   22.3630   12.6710   24.8140 C   0  0  0  0  0  0  0  0  0  0  0  0
   21.8000   13.5270   24.1440 O   0  0  0  0  0  0  0  0  0  0  0  0
   22.0640   12.5620   26.2620 C   0  0  0  0  0  0  0  0  0  0  0  0
   21.2520   11.5410   26.7250 C   0  0  0  0  0  0  0  0  0  0  0  0
   21.0050   11.4880   28.0860 C   0  0  0  0  0  0  0  0  0  0  0  0
   21.5660   12.4310   28.9240 C   0  0  0  0  0  0  0  0  0  0  0  0
   21.3460   12.4250   30.2500 F   0  0  0  0  0  0  0  0  0  0  0  0
   22.3550   13.4120   28.3690 C   0  0  0  0  0  0  0  0  0  0  0  0
   22.6090   13.4930   27.0520 N   0  0  0  0  0  0  0  0  0  0  0  0
   23.0280   10.4530   22.2510 C   0  0  0  0  0  0  0  0  0  0  0  0
   23.4380   10.2880   20.9400 C   0  0  0  0  0  0  0  0  0  0  0  0
   24.3940   11.1160   20.3860 C   0  0  0  0  0  0  0  0  0  0  0  0
   24.8000   10.9150   19.1060 F   0  0  0  0  0  0  0  0  0  0  0  0
   27.1490   12.4290   19.8090 C   0  0  0  0  0  0  0  0  0  0  0  0
   28.1010   11.4950   20.9800 S   0  0  0  0  0  0  0  0  0  0  0  0
   29.4580   11.4480   20.4670 O   0  0  0  0  0  0  0  0  0  0  0  0
   27.3810   10.3550   21.4550 O   0  0  0  0  0  0  0  0  0  0  0  0
   28.6125   12.3765   24.3672 H   0  0  0  0  0  0  0  0  0  0  0  0
   29.3329   11.1416   23.2797 H   0  0  0  0  0  0  0  0  0  0  0  0
   29.9714   12.8206   23.2797 H   0  0  0  0  0  0  0  0  0  0  0  0
   27.3680   15.5550   23.3630 H   0  0  0  0  0  0  0  0  0  0  0  0
   28.5210   14.4240   23.9100 H   0  0  0  0  0  0  0  0  0  0  0  0
   24.6892   14.7528   19.9364 H   0  0  0  0  0  0  0  0  0  0  0  0
   26.0568   14.4672   18.8074 H   0  0  0  0  0  0  0  0  0  0  0  0
   24.6452   13.3564   18.8074 H   0  0  0  0  0  0  0  0  0  0  0  0
   24.9521   13.1346   23.0185 H   0  0  0  0  0  0  0  0  0  0  0  0
   23.7200   11.1890   24.9990 H   0  0  0  0  0  0  0  0  0  0  0  0
   20.8193   10.7996   26.0372 H   0  0  0  0  0  0  0  0  0  0  0  0
   20.3630   10.6961   28.4991 H   0  0  0  0  0  0  0  0  0  0  0  0
   22.7992   14.1661   29.0353 H   0  0  0  0  0  0  0  0  0  0  0  0
   22.2705    9.7904   22.6950 H   0  0  0  0  0  0  0  0  0  0  0  0
   22.9962    9.4860   20.3305 H   0  0  0  0  0  0  0  0  0  0  0  0
   26.7679   11.7510   19.0311 H   0  0  0  0  0  0  0  0  0  0  0  0
   27.7954   13.1986   19.3620 H   0  0  0  0  0  0  0  0  0  0  0  0
  1  2  1  0
  2  3  1  0
  3  4  1  0
  3  5  2  0
  5  6  1  0
  6  7  1  6
  6  8  1  0
  8  9  2  0
  9 10  1  0
 10 11  1  0
 11 12  1  0
 12 13  2  0
 12 14  1  0
 14 15  2  0
 15 16  1  0
 16 17  2  0
 17 18  1  0
 17 19  1  0
 19 20  2  0
 10 21  2  0
 21 22  1  0
 22 23  2  0
 23 24  1  0
  6 25  1  0
 25 26  1  0
 26 27  2  0
 26 28  2  0
 26  2  1  0
 23  8  1  0
 20 14  1  0
  1 29  1  0
  1 30  1  0
  1 31  1  0
  4 32  1  0
  4 33  1  0
  7 34  1  0
  7 35  1  0
  7 36  1  0
  9 37  1  0
 11 38  1  0
 15 39  1  0
 16 40  1  0
 19 41  1  0
 21 42  1  0
 22 43  1  0
 25 44  1  0
 25 45  1  0
M  END
>  <meeko>  (2)
{"is_sidechain": false}

>  <source_group>  (2)
BACE1-476

>  <source_system>  (2)
BACE1_verubecestat

>  <source_run>  (2)
alternate_476_seed5519_ex32

>  <source_seed>  (2)
5519

>  <vina_pose_rank>  (2)
2

>  <vina_affinity_kcal_mol>  (2)
-8.625

>  <vina_rmsd_to_crystal_angstrom>  (2)
7.3804999999999996

$$$$
BACE1_verubecestat__alternate_476_seed5519_ex32__pose03
     RDKit          3D

 45 47  0  0  0  0  0  0  0  0999 V2000
   23.0980   13.5250   20.2190 C   0  0  0  0  0  0  0  0  0  0  0  0
   24.4880   13.1530   20.5490 N   0  0  0  0  0  0  0  0  0  0  0  0
   24.8860   11.8260   20.8280 C   0  0  0  0  0  0  0  0  0  0  0  0
   23.9030   10.8970   20.6180 N   0  0  0  0  0  0  0  0  0  0  0  0
   26.0760   11.4980   21.2240 N   0  0  0  0  0  0  0  0  0  0  0  0
   27.0880   12.5060   21.5360 C   0  0  2  0  0  0  0  0  0  0  0  0
   28.3940   11.7090   21.4830 C   0  0  0  0  0  0  0  0  0  0  0  0
   26.9150   13.0740   22.9360 C   0  0  0  0  0  0  0  0  0  0  0  0
   25.8340   12.7040   23.7350 C   0  0  0  0  0  0  0  0  0  0  0  0
   25.6510   13.2040   25.0040 C   0  0  0  0  0  0  0  0  0  0  0  0
   24.5250   12.7480   25.7020 N   0  0  0  0  0  0  0  0  0  0  0  0
   23.1940   12.8350   25.3320 C   0  0  0  0  0  0  0  0  0  0  0  0
   22.7710   13.4570   24.3660 O   0  0  0  0  0  0  0  0  0  0  0  0
   22.2500   12.0710   26.1830 C   0  0  0  0  0  0  0  0  0  0  0  0
   21.0640   11.5990   25.6470 C   0  0  0  0  0  0  0  0  0  0  0  0
   20.2190   10.8940   26.4860 C   0  0  0  0  0  0  0  0  0  0  0  0
   20.5770   10.6840   27.8030 C   0  0  0  0  0  0  0  0  0  0  0  0
   19.7840   10.0140   28.6580 F   0  0  0  0  0  0  0  0  0  0  0  0
   21.7740   11.1980   28.2460 C   0  0  0  0  0  0  0  0  0  0  0  0
   22.6120   11.8910   27.4570 N   0  0  0  0  0  0  0  0  0  0  0  0
   26.5680   14.0940   25.5480 C   0  0  0  0  0  0  0  0  0  0  0  0
   27.6460   14.4750   24.7680 C   0  0  0  0  0  0  0  0  0  0  0  0
   27.7990   13.9900   23.4850 C   0  0  0  0  0  0  0  0  0  0  0  0
   28.8500   14.4030   22.7290 F   0  0  0  0  0  0  0  0  0  0  0  0
   27.1520   13.5360   20.4300 C   0  0  0  0  0  0  0  0  0  0  0  0
   25.6220   14.4280   20.3140 S   0  0  0  0  0  0  0  0  0  0  0  0
   25.4990   14.8620   18.9340 O   0  0  0  0  0  0  0  0  0  0  0  0
   25.4190   15.2780   21.4450 O   0  0  0  0  0  0  0  0  0  0  0  0
   22.5288   13.6773   21.1479 H   0  0  0  0  0  0  0  0  0  0  0  0
   23.0969   14.4550   19.6316 H   0  0  0  0  0  0  0  0  0  0  0  0
   22.6325   12.7198   19.6316 H   0  0  0  0  0  0  0  0  0  0  0  0
   24.0830    9.9430   20.7850 H   0  0  0  0  0  0  0  0  0  0  0  0
   23.0150   11.1810   20.2990 H   0  0  0  0  0  0  0  0  0  0  0  0
   28.7374   11.4994   22.5068 H   0  0  0  0  0  0  0  0  0  0  0  0
   28.2236   10.7608   20.9521 H   0  0  0  0  0  0  0  0  0  0  0  0
   29.1593   12.2941   20.9521 H   0  0  0  0  0  0  0  0  0  0  0  0
   25.1012   11.9868   23.3368 H   0  0  0  0  0  0  0  0  0  0  0  0
   24.7030   12.3100   26.5650 H   0  0  0  0  0  0  0  0  0  0  0  0
   20.8031   11.7777   24.5934 H   0  0  0  0  0  0  0  0  0  0  0  0
   19.2646   10.5019   26.1048 H   0  0  0  0  0  0  0  0  0  0  0  0
   22.0583   11.0337   29.2959 H   0  0  0  0  0  0  0  0  0  0  0  0
   26.4413   14.4845   26.5685 H   0  0  0  0  0  0  0  0  0  0  0  0
   28.3909   15.1739   25.1762 H   0  0  0  0  0  0  0  0  0  0  0  0
   27.9672   14.2434   20.6421 H   0  0  0  0  0  0  0  0  0  0  0  0
   27.3334   13.0195   19.4759 H   0  0  0  0  0  0  0  0  0  0  0  0
  1  2  1  0
  2  3  1  0
  3  4  1  0
  3  5  2  0
  5  6  1  0
  6  7  1  1
  6  8  1  0
  8  9  2  0
  9 10  1  0
 10 11  1  0
 11 12  1  0
 12 13  2  0
 12 14  1  0
 14 15  2  0
 15 16  1  0
 16 17  2  0
 17 18  1  0
 17 19  1  0
 19 20  2  0
 10 21  2  0
 21 22  1  0
 22 23  2  0
 23 24  1  0
  6 25  1  0
 25 26  1  0
 26 27  2  0
 26 28  2  0
 26  2  1  0
 23  8  1  0
 20 14  1  0
  1 29  1  0
  1 30  1  0
  1 31  1  0
  4 32  1  0
  4 33  1  0
  7 34  1  0
  7 35  1  0
  7 36  1  0
  9 37  1  0
 11 38  1  0
 15 39  1  0
 16 40  1  0
 19 41  1  0
 21 42  1  0
 22 43  1  0
 25 44  1  0
 25 45  1  0
M  END
>  <meeko>  (3)
{"is_sidechain": false}

>  <source_group>  (3)
BACE1-476

>  <source_system>  (3)
BACE1_verubecestat

>  <source_run>  (3)
alternate_476_seed5519_ex32

>  <source_seed>  (3)
5519

>  <vina_pose_rank>  (3)
3

>  <vina_affinity_kcal_mol>  (3)
-8.5510000000000002

>  <vina_rmsd_to_crystal_angstrom>  (3)
7.5380000000000003

$$$$
BACE1_verubecestat__alternate_476_seed5519_ex32__pose04
     RDKit          3D

 45 47  0  0  0  0  0  0  0  0999 V2000
   28.5660   13.5680   24.8130 C   0  0  0  0  0  0  0  0  0  0  0  0
   27.9210   14.0110   23.5610 N   0  0  0  0  0  0  0  0  0  0  0  0
   27.1400   15.1850   23.4710 C   0  0  0  0  0  0  0  0  0  0  0  0
   27.1590   15.9530   24.6040 N   0  0  0  0  0  0  0  0  0  0  0  0
   26.4780   15.5310   22.4100 N   0  0  0  0  0  0  0  0  0  0  0  0
   26.3880   14.6570   21.2410 C   0  0  2  0  0  0  0  0  0  0  0  0
   25.9600   15.6170   20.1280 C   0  0  0  0  0  0  0  0  0  0  0  0
   25.3170   13.5900   21.4080 C   0  0  0  0  0  0  0  0  0  0  0  0
   24.5850   13.4840   22.5890 C   0  0  0  0  0  0  0  0  0  0  0  0
   23.6120   12.5260   22.7690 C   0  0  0  0  0  0  0  0  0  0  0  0
   22.9480   12.5290   24.0020 N   0  0  0  0  0  0  0  0  0  0  0  0
   23.2520   11.8040   25.1410 C   0  0  0  0  0  0  0  0  0  0  0  0
   24.0990   10.9230   25.2100 O   0  0  0  0  0  0  0  0  0  0  0  0
   22.4890   12.1830   26.3550 C   0  0  0  0  0  0  0  0  0  0  0  0
   21.1600   11.8180   26.4780 C   0  0  0  0  0  0  0  0  0  0  0  0
   20.4960   12.1990   27.6310 C   0  0  0  0  0  0  0  0  0  0  0  0
   21.1650   12.9140   28.6050 C   0  0  0  0  0  0  0  0  0  0  0  0
   20.5600   13.3140   29.7370 F   0  0  0  0  0  0  0  0  0  0  0  0
   22.4860   13.2350   28.3890 C   0  0  0  0  0  0  0  0  0  0  0  0
   23.1550   12.8840   27.2780 N   0  0  0  0  0  0  0  0  0  0  0  0
   23.3080   11.6330   21.7490 C   0  0  0  0  0  0  0  0  0  0  0  0
   24.0280   11.7220   20.5710 C   0  0  0  0  0  0  0  0  0  0  0  0
   25.0230   12.6670   20.4170 C   0  0  0  0  0  0  0  0  0  0  0  0
   25.7340   12.7140   19.2610 F   0  0  0  0  0  0  0  0  0  0  0  0
   27.7600   14.1370   20.8750 C   0  0  0  0  0  0  0  0  0  0  0  0
   28.4110   13.1170   22.1740 S   0  0  0  0  0  0  0  0  0  0  0  0
   29.8570   13.2120   22.0900 O   0  0  0  0  0  0  0  0  0  0  0  0
   27.6920   11.8860   22.2890 O   0  0  0  0  0  0  0  0  0  0  0  0
   28.0012   13.9559   25.6736 H   0  0  0  0  0  0  0  0  0  0  0  0
   28.5802   12.4687   24.8491 H   0  0  0  0  0  0  0  0  0  0  0  0
   29.5971   13.9494   24.8491 H   0  0  0  0  0  0  0  0  0  0  0  0
   26.6450   16.7920   24.6380 H   0  0  0  0  0  0  0  0  0  0  0  0
   27.6880   15.6680   25.3840 H   0  0  0  0  0  0  0  0  0  0  0  0
   25.5505   16.5356   20.5735 H   0  0  0  0  0  0  0  0  0  0  0  0
   26.8313   15.8683   19.5054 H   0  0  0  0  0  0  0  0  0  0  0  0
   25.1907   15.1369   19.5054 H   0  0  0  0  0  0  0  0  0  0  0  0
   24.7916   14.1905   23.4064 H   0  0  0  0  0  0  0  0  0  0  0  0
   22.1660   13.1240   24.0680 H   0  0  0  0  0  0  0  0  0  0  0  0
   20.6501   11.2462   25.6886 H   0  0  0  0  0  0  0  0  0  0  0  0
   19.4379   11.9330   27.7713 H   0  0  0  0  0  0  0  0  0  0  0  0
   23.0194   13.8062   29.1630 H   0  0  0  0  0  0  0  0  0  0  0  0
   22.5183   10.8776   21.8743 H   0  0  0  0  0  0  0  0  0  0  0  0
   23.8047   11.0302   19.7454 H   0  0  0  0  0  0  0  0  0  0  0  0
   27.6868   13.5433   19.9519 H   0  0  0  0  0  0  0  0  0  0  0  0
   28.4345   14.9930   20.7255 H   0  0  0  0  0  0  0  0  0  0  0  0
  1  2  1  0
  2  3  1  0
  3  4  1  0
  3  5  2  0
  5  6  1  0
  6  7  1  6
  6  8  1  0
  8  9  2  0
  9 10  1  0
 10 11  1  0
 11 12  1  0
 12 13  2  0
 12 14  1  0
 14 15  2  0
 15 16  1  0
 16 17  2  0
 17 18  1  0
 17 19  1  0
 19 20  2  0
 10 21  2  0
 21 22  1  0
 22 23  2  0
 23 24  1  0
  6 25  1  0
 25 26  1  0
 26 27  2  0
 26 28  2  0
 26  2  1  0
 23  8  1  0
 20 14  1  0
  1 29  1  0
  1 30  1  0
  1 31  1  0
  4 32  1  0
  4 33  1  0
  7 34  1  0
  7 35  1  0
  7 36  1  0
  9 37  1  0
 11 38  1  0
 15 39  1  0
 16 40  1  0
 19 41  1  0
 21 42  1  0
 22 43  1  0
 25 44  1  0
 25 45  1  0
M  END
>  <meeko>  (4)
{"is_sidechain": false}

>  <source_group>  (4)
BACE1-476

>  <source_system>  (4)
BACE1_verubecestat

>  <source_run>  (4)
alternate_476_seed5519_ex32

>  <source_seed>  (4)
5519

>  <vina_pose_rank>  (4)
4

>  <vina_affinity_kcal_mol>  (4)
-8.5069999999999997

>  <vina_rmsd_to_crystal_angstrom>  (4)
7.5906000000000002

$$$$
BACE1_verubecestat__alternate_476_seed5519_ex32__pose05
     RDKit          3D

 45 47  0  0  0  0  0  0  0  0999 V2000
   17.0840   14.5530   26.5630 C   0  0  0  0  0  0  0  0  0  0  0  0
   17.8920   13.3770   26.9410 N   0  0  0  0  0  0  0  0  0  0  0  0
   18.1230   13.0000   28.2830 C   0  0  0  0  0  0  0  0  0  0  0  0
   17.4080   13.7290   29.1950 N   0  0  0  0  0  0  0  0  0  0  0  0
   18.9170   12.0370   28.6360 N   0  0  0  0  0  0  0  0  0  0  0  0
   19.7470   11.3300   27.6620 C   0  0  2  0  0  0  0  0  0  0  0  0
   20.1180   10.0400   28.4000 C   0  0  0  0  0  0  0  0  0  0  0  0
   21.0210   12.0930   27.3360 C   0  0  0  0  0  0  0  0  0  0  0  0
   21.6140   11.9990   26.0780 C   0  0  0  0  0  0  0  0  0  0  0  0
   22.7690   12.6760   25.7560 C   0  0  0  0  0  0  0  0  0  0  0  0
   23.2600   12.4980   24.4560 N   0  0  0  0  0  0  0  0  0  0  0  0
   23.1740   13.3640   23.3810 C   0  0  0  0  0  0  0  0  0  0  0  0
   22.5240   14.4010   23.3620 O   0  0  0  0  0  0  0  0  0  0  0  0
   23.9770   12.9810   22.1940 C   0  0  0  0  0  0  0  0  0  0  0  0
   23.4520   13.1440   20.9230 C   0  0  0  0  0  0  0  0  0  0  0  0
   24.2440   12.7690   19.8520 C   0  0  0  0  0  0  0  0  0  0  0  0
   25.5070   12.2570   20.0760 C   0  0  0  0  0  0  0  0  0  0  0  0
   26.3070   11.8710   19.0680 F   0  0  0  0  0  0  0  0  0  0  0  0
   25.9380   12.1270   21.3770 C   0  0  0  0  0  0  0  0  0  0  0  0
   25.1910   12.4770   22.4360 N   0  0  0  0  0  0  0  0  0  0  0  0
   23.3790   13.5080   26.6860 C   0  0  0  0  0  0  0  0  0  0  0  0
   22.8060   13.6110   27.9420 C   0  0  0  0  0  0  0  0  0  0  0  0
   21.6650   12.9010   28.2610 C   0  0  0  0  0  0  0  0  0  0  0  0
   21.1390   12.9960   29.5090 F   0  0  0  0  0  0  0  0  0  0  0  0
   18.9140   10.9310   26.4640 C   0  0  0  0  0  0  0  0  0  0  0  0
   18.3130   12.3670   25.6120 S   0  0  0  0  0  0  0  0  0  0  0  0
   17.0760   11.9750   24.9610 O   0  0  0  0  0  0  0  0  0  0  0  0
   19.3710   13.0780   24.9640 O   0  0  0  0  0  0  0  0  0  0  0  0
   16.7329   15.0640   27.4716 H   0  0  0  0  0  0  0  0  0  0  0  0
   17.6987   15.2443   25.9678 H   0  0  0  0  0  0  0  0  0  0  0  0
   16.2182   14.2271   25.9678 H   0  0  0  0  0  0  0  0  0  0  0  0
   17.5010   13.5410   30.1570 H   0  0  0  0  0  0  0  0  0  0  0  0
   16.8010   14.4410   28.8900 H   0  0  0  0  0  0  0  0  0  0  0  0
   20.0687   10.2114   29.4854 H   0  0  0  0  0  0  0  0  0  0  0  0
   19.4127    9.2429   28.1223 H   0  0  0  0  0  0  0  0  0  0  0  0
   21.1390    9.7394   28.1223 H   0  0  0  0  0  0  0  0  0  0  0  0
   21.1426   11.3615   25.3155 H   0  0  0  0  0  0  0  0  0  0  0  0
   23.7260   11.6470   24.2870 H   0  0  0  0  0  0  0  0  0  0  0  0
   22.4435   13.5560   20.7705 H   0  0  0  0  0  0  0  0  0  0  0  0
   23.8683   12.8785   18.8240 H   0  0  0  0  0  0  0  0  0  0  0  0
   26.9425   11.7167   21.5574 H   0  0  0  0  0  0  0  0  0  0  0  0
   24.2907   14.0686   26.4320 H   0  0  0  0  0  0  0  0  0  0  0  0
   23.2655   14.2670   28.6960 H   0  0  0  0  0  0  0  0  0  0  0  0
   19.5324   10.3355   25.7763 H   0  0  0  0  0  0  0  0  0  0  0  0
   18.0538   10.3404   26.8121 H   0  0  0  0  0  0  0  0  0  0  0  0
  1  2  1  0
  2  3  1  0
  3  4  1  0
  3  5  2  0
  5  6  1  0
  6  7  1  1
  6  8  1  0
  8  9  2  0
  9 10  1  0
 10 11  1  0
 11 12  1  0
 12 13  2  0
 12 14  1  0
 14 15  2  0
 15 16  1  0
 16 17  2  0
 17 18  1  0
 17 19  1  0
 19 20  2  0
 10 21  2  0
 21 22  1  0
 22 23  2  0
 23 24  1  0
  6 25  1  0
 25 26  1  0
 26 27  2  0
 26 28  2  0
 26  2  1  0
 23  8  1  0
 20 14  1  0
  1 29  1  0
  1 30  1  0
  1 31  1  0
  4 32  1  0
  4 33  1  0
  7 34  1  0
  7 35  1  0
  7 36  1  0
  9 37  1  0
 11 38  1  0
 15 39  1  0
 16 40  1  0
 19 41  1  0
 21 42  1  0
 22 43  1  0
 25 44  1  0
 25 45  1  0
M  END
>  <meeko>  (5)
{"is_sidechain": false}

>  <source_group>  (5)
BACE1-476

>  <source_system>  (5)
BACE1_verubecestat

>  <source_run>  (5)
alternate_476_seed5519_ex32

>  <source_seed>  (5)
5519

>  <vina_pose_rank>  (5)
5

>  <vina_affinity_kcal_mol>  (5)
-8.3689999999999998

>  <vina_rmsd_to_crystal_angstrom>  (5)
6.8244999999999996

$$$$
BACE1_verubecestat__alternate_476_seed5519_ex32__pose06
     RDKit          3D

 45 47  0  0  0  0  0  0  0  0999 V2000
   23.3190   10.4560   24.3710 C   0  0  0  0  0  0  0  0  0  0  0  0
   23.6500   11.2960   23.2020 N   0  0  0  0  0  0  0  0  0  0  0  0
   23.4220   10.8860   21.8700 C   0  0  0  0  0  0  0  0  0  0  0  0
   22.7290    9.7100   21.7620 N   0  0  0  0  0  0  0  0  0  0  0  0
   23.8040   11.5630   20.8310 N   0  0  0  0  0  0  0  0  0  0  0  0
   24.6240   12.7670   20.9580 C   0  0  2  0  0  0  0  0  0  0  0  0
   24.4260   13.4600   19.6070 C   0  0  0  0  0  0  0  0  0  0  0  0
   26.0980   12.4370   21.1300 C   0  0  0  0  0  0  0  0  0  0  0  0
   26.9570   13.3080   21.8000 C   0  0  0  0  0  0  0  0  0  0  0  0
   28.2960   13.0370   21.9680 C   0  0  0  0  0  0  0  0  0  0  0  0
   29.0480   13.9930   22.6630 N   0  0  0  0  0  0  0  0  0  0  0  0
   29.2830   14.0750   24.0230 C   0  0  0  0  0  0  0  0  0  0  0  0
   28.7500   13.3750   24.8740 O   0  0  0  0  0  0  0  0  0  0  0  0
   30.2940   15.0810   24.4320 C   0  0  0  0  0  0  0  0  0  0  0  0
   29.9230   16.1470   25.2330 C   0  0  0  0  0  0  0  0  0  0  0  0
   30.9060   17.0570   25.5820 C   0  0  0  0  0  0  0  0  0  0  0  0
   32.2000   16.8770   25.1340 C   0  0  0  0  0  0  0  0  0  0  0  0
   33.1850   17.7390   25.4390 F   0  0  0  0  0  0  0  0  0  0  0  0
   32.4700   15.7890   24.3350 C   0  0  0  0  0  0  0  0  0  0  0  0
   31.5360   14.8930   23.9750 N   0  0  0  0  0  0  0  0  0  0  0  0
   28.8400   11.8530   21.4850 C   0  0  0  0  0  0  0  0  0  0  0  0
   28.0040   10.9790   20.8140 C   0  0  0  0  0  0  0  0  0  0  0  0
   26.6690   11.2790   20.6250 C   0  0  0  0  0  0  0  0  0  0  0  0
   25.8760   10.4180   19.9370 F   0  0  0  0  0  0  0  0  0  0  0  0
   24.0440   13.6810   22.0140 C   0  0  0  0  0  0  0  0  0  0  0  0
   24.0970   12.9080   23.6110 S   0  0  0  0  0  0  0  0  0  0  0  0
   23.0050   13.4740   24.3820 O   0  0  0  0  0  0  0  0  0  0  0  0
   25.4380   12.7790   24.0910 O   0  0  0  0  0  0  0  0  0  0  0  0
   23.5377   11.0111   25.2951 H   0  0  0  0  0  0  0  0  0  0  0  0
   22.2508   10.1949   24.3442 H   0  0  0  0  0  0  0  0  0  0  0  0
   23.9220    9.5364   24.3442 H   0  0  0  0  0  0  0  0  0  0  0  0
   22.5210    9.3420   20.8730 H   0  0  0  0  0  0  0  0  0  0  0  0
   22.4390    9.2320   22.5730 H   0  0  0  0  0  0  0  0  0  0  0  0
   24.1272   14.5058   19.7716 H   0  0  0  0  0  0  0  0  0  0  0  0
   25.3679   13.4328   19.0394 H   0  0  0  0  0  0  0  0  0  0  0  0
   23.6407   12.9393   19.0394 H   0  0  0  0  0  0  0  0  0  0  0  0
   26.5500   14.2447   22.2086 H   0  0  0  0  0  0  0  0  0  0  0  0
   29.4610   14.6970   22.1120 H   0  0  0  0  0  0  0  0  0  0  0  0
   28.8858   16.2666   25.5793 H   0  0  0  0  0  0  0  0  0  0  0  0
   30.6571   17.9216   26.2148 H   0  0  0  0  0  0  0  0  0  0  0  0
   33.4993   15.6465   23.9742 H   0  0  0  0  0  0  0  0  0  0  0  0
   29.9044   11.6177   21.6320 H   0  0  0  0  0  0  0  0  0  0  0  0
   28.4077   10.0323   20.4257 H   0  0  0  0  0  0  0  0  0  0  0  0
   24.6272   14.6132   22.0445 H   0  0  0  0  0  0  0  0  0  0  0  0
   22.9955   13.8949   21.7593 H   0  0  0  0  0  0  0  0  0  0  0  0
  1  2  1  0
  2  3  1  0
  3  4  1  0
  3  5  2  0
  5  6  1  0
  6  7  1  6
  6  8  1  0
  8  9  2  0
  9 10  1  0
 10 11  1  0
 11 12  1  0
 12 13  2  0
 12 14  1  0
 14 15  2  0
 15 16  1  0
 16 17  2  0
 17 18  1  0
 17 19  1  0
 19 20  2  0
 10 21  2  0
 21 22  1  0
 22 23  2  0
 23 24  1  0
  6 25  1  0
 25 26  1  0
 26 27  2  0
 26 28  2  0
 26  2  1  0
 23  8  1  0
 20 14  1  0
  1 29  1  0
  1 30  1  0
  1 31  1  0
  4 32  1  0
  4 33  1  0
  7 34  1  0
  7 35  1  0
  7 36  1  0
  9 37  1  0
 11 38  1  0
 15 39  1  0
 16 40  1  0
 19 41  1  0
 21 42  1  0
 22 43  1  0
 25 44  1  0
 25 45  1  0
M  END
>  <meeko>  (6)
{"is_sidechain": false}

>  <source_group>  (6)
BACE1-476

>  <source_system>  (6)
BACE1_verubecestat

>  <source_run>  (6)
alternate_476_seed5519_ex32

>  <source_seed>  (6)
5519

>  <vina_pose_rank>  (6)
6

>  <vina_affinity_kcal_mol>  (6)
-8.359

>  <vina_rmsd_to_crystal_angstrom>  (6)
5.2393000000000001

$$$$
BACE1_verubecestat__alternate_476_seed5519_ex32__pose07
     RDKit          3D

 45 47  0  0  0  0  0  0  0  0999 V2000
   28.8360   17.1580   25.1910 C   0  0  0  0  0  0  0  0  0  0  0  0
   28.6920   15.8760   24.4730 N   0  0  0  0  0  0  0  0  0  0  0  0
   29.0320   15.7140   23.1110 C   0  0  0  0  0  0  0  0  0  0  0  0
   29.6460   16.8060   22.5580 N   0  0  0  0  0  0  0  0  0  0  0  0
   28.8120   14.6280   22.4370 N   0  0  0  0  0  0  0  0  0  0  0  0
   28.0710   13.5050   23.0100 C   0  0  2  0  0  0  0  0  0  0  0  0
   28.4600   12.3370   22.0990 C   0  0  0  0  0  0  0  0  0  0  0  0
   26.5660   13.7130   22.9270 C   0  0  0  0  0  0  0  0  0  0  0  0
   25.7070   13.1310   23.8580 C   0  0  0  0  0  0  0  0  0  0  0  0
   24.3420   13.3000   23.8050 C   0  0  0  0  0  0  0  0  0  0  0  0
   23.5920   12.6630   24.8030 N   0  0  0  0  0  0  0  0  0  0  0  0
   23.3170   13.1090   26.0830 C   0  0  0  0  0  0  0  0  0  0  0  0
   23.8070   14.1030   26.6040 O   0  0  0  0  0  0  0  0  0  0  0  0
   22.3190   12.3070   26.8320 C   0  0  0  0  0  0  0  0  0  0  0  0
   21.1240   11.9530   26.2290 C   0  0  0  0  0  0  0  0  0  0  0  0
   20.2290   11.2060   26.9740 C   0  0  0  0  0  0  0  0  0  0  0  0
   20.5460   10.8420   28.2680 C   0  0  0  0  0  0  0  0  0  0  0  0
   19.7040   10.1260   29.0330 F   0  0  0  0  0  0  0  0  0  0  0  0
   21.7570   11.2470   28.7830 C   0  0  0  0  0  0  0  0  0  0  0  0
   22.6440   11.9770   28.0860 N   0  0  0  0  0  0  0  0  0  0  0  0
   23.7680   14.0880   22.8150 C   0  0  0  0  0  0  0  0  0  0  0  0
   24.6050   14.6700   21.8800 C   0  0  0  0  0  0  0  0  0  0  0  0
   25.9710   14.4660   21.9270 C   0  0  0  0  0  0  0  0  0  0  0  0
   26.7680   15.0250   20.9800 F   0  0  0  0  0  0  0  0  0  0  0  0
   28.5980   13.1860   24.3910 C   0  0  0  0  0  0  0  0  0  0  0  0
   28.3200   14.5450   25.4980 S   0  0  0  0  0  0  0  0  0  0  0  0
   29.3610   14.4760   26.5080 O   0  0  0  0  0  0  0  0  0  0  0  0
   26.9300   14.7140   25.7870 O   0  0  0  0  0  0  0  0  0  0  0  0
   28.8155   16.9752   26.2755 H   0  0  0  0  0  0  0  0  0  0  0  0
   29.7924   17.6267   24.9162 H   0  0  0  0  0  0  0  0  0  0  0  0
   28.0074   17.8272   24.9162 H   0  0  0  0  0  0  0  0  0  0  0  0
   29.9220   16.7890   21.6130 H   0  0  0  0  0  0  0  0  0  0  0  0
   29.8140   17.6070   23.1060 H   0  0  0  0  0  0  0  0  0  0  0  0
   28.7481   11.4721   22.7145 H   0  0  0  0  0  0  0  0  0  0  0  0
   27.6035   12.0662   21.4641 H   0  0  0  0  0  0  0  0  0  0  0  0
   29.3078   12.6338   21.4641 H   0  0  0  0  0  0  0  0  0  0  0  0
   26.1349   12.5153   24.6629 H   0  0  0  0  0  0  0  0  0  0  0  0
   23.2120   11.7880   24.5620 H   0  0  0  0  0  0  0  0  0  0  0  0
   20.8948   12.2544   25.1962 H   0  0  0  0  0  0  0  0  0  0  0  0
   19.2665   10.9025   26.5364 H   0  0  0  0  0  0  0  0  0  0  0  0
   22.0104   10.9593   29.8140 H   0  0  0  0  0  0  0  0  0  0  0  0
   22.6799   14.2445   22.7759 H   0  0  0  0  0  0  0  0  0  0  0  0
   24.1777   15.3035   21.0887 H   0  0  0  0  0  0  0  0  0  0  0  0
   28.0823   12.2944   24.7772 H   0  0  0  0  0  0  0  0  0  0  0  0
   29.6802   13.0014   24.3226 H   0  0  0  0  0  0  0  0  0  0  0  0
  1  2  1  0
  2  3  1  0
  3  4  1  0
  3  5  2  0
  5  6  1  0
  6  7  1  6
  6  8  1  0
  8  9  2  0
  9 10  1  0
 10 11  1  0
 11 12  1  0
 12 13  2  0
 12 14  1  0
 14 15  2  0
 15 16  1  0
 16 17  2  0
 17 18  1  0
 17 19  1  0
 19 20  2  0
 10 21  2  0
 21 22  1  0
 22 23  2  0
 23 24  1  0
  6 25  1  0
 25 26  1  0
 26 27  2  0
 26 28  2  0
 26  2  1  0
 23  8  1  0
 20 14  1  0
  1 29  1  0
  1 30  1  0
  1 31  1  0
  4 32  1  0
  4 33  1  0
  7 34  1  0
  7 35  1  0
  7 36  1  0
  9 37  1  0
 11 38  1  0
 15 39  1  0
 16 40  1  0
 19 41  1  0
 21 42  1  0
 22 43  1  0
 25 44  1  0
 25 45  1  0
M  END
>  <meeko>  (7)
{"is_sidechain": false}

>  <source_group>  (7)
BACE1-476

>  <source_system>  (7)
BACE1_verubecestat

>  <source_run>  (7)
alternate_476_seed5519_ex32

>  <source_seed>  (7)
5519

>  <vina_pose_rank>  (7)
7

>  <vina_affinity_kcal_mol>  (7)
-8.1300000000000008

>  <vina_rmsd_to_crystal_angstrom>  (7)
8.3188999999999993

$$$$
BACE1_verubecestat__alternate_476_seed5519_ex32__pose08
     RDKit          3D

 45 47  0  0  0  0  0  0  0  0999 V2000
   23.3430   13.4410   19.9930 C   0  0  0  0  0  0  0  0  0  0  0  0
   24.7150   13.0920   20.4120 N   0  0  0  0  0  0  0  0  0  0  0  0
   25.1340   11.7630   20.6460 C   0  0  0  0  0  0  0  0  0  0  0  0
   24.2030   10.8190   20.3050 N   0  0  0  0  0  0  0  0  0  0  0  0
   26.3000   11.4470   21.1180 N   0  0  0  0  0  0  0  0  0  0  0  0
   27.2480   12.4650   21.5680 C   0  0  2  0  0  0  0  0  0  0  0  0
   28.5820   11.7120   21.5760 C   0  0  0  0  0  0  0  0  0  0  0  0
   26.9460   12.9430   22.9790 C   0  0  0  0  0  0  0  0  0  0  0  0
   25.7080   12.6990   23.5720 C   0  0  0  0  0  0  0  0  0  0  0  0
   25.4060   13.1220   24.8470 C   0  0  0  0  0  0  0  0  0  0  0  0
   24.1270   12.8100   25.3250 N   0  0  0  0  0  0  0  0  0  0  0  0
   22.9020   13.1010   24.7520 C   0  0  0  0  0  0  0  0  0  0  0  0
   22.7370   13.8110   23.7680 O   0  0  0  0  0  0  0  0  0  0  0  0
   21.7330   12.4520   25.3920 C   0  0  0  0  0  0  0  0  0  0  0  0
   21.9000   11.2820   26.1120 C   0  0  0  0  0  0  0  0  0  0  0  0
   20.7740   10.7190   26.6870 C   0  0  0  0  0  0  0  0  0  0  0  0
   19.5440   11.3280   26.5310 C   0  0  0  0  0  0  0  0  0  0  0  0
   18.4220   10.8130   27.0620 F   0  0  0  0  0  0  0  0  0  0  0  0
   19.4780   12.4870   25.7910 C   0  0  0  0  0  0  0  0  0  0  0  0
   20.5510   13.0540   25.2170 N   0  0  0  0  0  0  0  0  0  0  0  0
   26.3520   13.8000   25.6060 C   0  0  0  0  0  0  0  0  0  0  0  0
   27.5850   14.0540   25.0320 C   0  0  0  0  0  0  0  0  0  0  0  0
   27.8630   13.6520   23.7400 C   0  0  0  0  0  0  0  0  0  0  0  0
   29.0710   13.9390   23.1900 F   0  0  0  0  0  0  0  0  0  0  0  0
   27.3640   13.5610   20.5310 C   0  0  0  0  0  0  0  0  0  0  0  0
   25.8180   14.4110   20.3420 S   0  0  0  0  0  0  0  0  0  0  0  0
   25.7900   14.9240   18.9840 O   0  0  0  0  0  0  0  0  0  0  0  0
   25.4980   15.1860   21.5000 O   0  0  0  0  0  0  0  0  0  0  0  0
   22.7170   13.6002   20.8834 H   0  0  0  0  0  0  0  0  0  0  0  0
   23.3663   14.3618   19.3917 H   0  0  0  0  0  0  0  0  0  0  0  0
   22.9235   12.6210   19.3917 H   0  0  0  0  0  0  0  0  0  0  0  0
   24.4030    9.8630   20.4310 H   0  0  0  0  0  0  0  0  0  0  0  0
   23.3350   11.0950   19.9320 H   0  0  0  0  0  0  0  0  0  0  0  0
   28.8966   11.5344   22.6150 H   0  0  0  0  0  0  0  0  0  0  0  0
   28.4622   10.7483   21.0594 H   0  0  0  0  0  0  0  0  0  0  0  0
   29.3452   12.3126   21.0594 H   0  0  0  0  0  0  0  0  0  0  0  0
   24.9455   12.1490   23.0010 H   0  0  0  0  0  0  0  0  0  0  0  0
   24.0960   12.3200   26.1790 H   0  0  0  0  0  0  0  0  0  0  0  0
   22.8906   10.8169   26.2231 H   0  0  0  0  0  0  0  0  0  0  0  0
   20.8584    9.7883   27.2672 H   0  0  0  0  0  0  0  0  0  0  0  0
   18.4988   12.9719   25.6639 H   0  0  0  0  0  0  0  0  0  0  0  0
   26.1273   14.1251   26.6326 H   0  0  0  0  0  0  0  0  0  0  0  0
   28.3547   14.5835   25.6126 H   0  0  0  0  0  0  0  0  0  0  0  0
   28.1344   14.2789   20.8489 H   0  0  0  0  0  0  0  0  0  0  0  0
   27.6391   13.1083   19.5669 H   0  0  0  0  0  0  0  0  0  0  0  0
  1  2  1  0
  2  3  1  0
  3  4  1  0
  3  5  2  0
  5  6  1  0
  6  7  1  1
  6  8  1  0
  8  9  2  0
  9 10  1  0
 10 11  1  0
 11 12  1  0
 12 13  2  0
 12 14  1  0
 14 15  2  0
 15 16  1  0
 16 17  2  0
 17 18  1  0
 17 19  1  0
 19 20  2  0
 10 21  2  0
 21 22  1  0
 22 23  2  0
 23 24  1  0
  6 25  1  0
 25 26  1  0
 26 27  2  0
 26 28  2  0
 26  2  1  0
 23  8  1  0
 20 14  1  0
  1 29  1  0
  1 30  1  0
  1 31  1  0
  4 32  1  0
  4 33  1  0
  7 34  1  0
  7 35  1  0
  7 36  1  0
  9 37  1  0
 11 38  1  0
 15 39  1  0
 16 40  1  0
 19 41  1  0
 21 42  1  0
 22 43  1  0
 25 44  1  0
 25 45  1  0
M  END
>  <meeko>  (8)
{"is_sidechain": false}

>  <source_group>  (8)
BACE1-476

>  <source_system>  (8)
BACE1_verubecestat

>  <source_run>  (8)
alternate_476_seed5519_ex32

>  <source_seed>  (8)
5519

>  <vina_pose_rank>  (8)
8

>  <vina_affinity_kcal_mol>  (8)
-8.1280000000000001

>  <vina_rmsd_to_crystal_angstrom>  (8)
7.7355999999999998

$$$$
BACE1_verubecestat__alternate_476_seed5519_ex32__pose09
     RDKit          3D

 45 47  0  0  0  0  0  0  0  0999 V2000
   25.9440   16.3430   20.8440 C   0  0  0  0  0  0  0  0  0  0  0  0
   26.4220   14.9460   20.8540 N   0  0  0  0  0  0  0  0  0  0  0  0
   26.6860   14.2140   19.6750 C   0  0  0  0  0  0  0  0  0  0  0  0
   26.6050   14.9580   18.5290 N   0  0  0  0  0  0  0  0  0  0  0  0
   27.0010   12.9550   19.6630 N   0  0  0  0  0  0  0  0  0  0  0  0
   26.9920   12.1490   20.8820 C   0  0  2  0  0  0  0  0  0  0  0  0
   27.8510   10.9400   20.5010 C   0  0  0  0  0  0  0  0  0  0  0  0
   25.5940   11.6660   21.2360 C   0  0  0  0  0  0  0  0  0  0  0  0
   25.1010   11.7760   22.5350 C   0  0  0  0  0  0  0  0  0  0  0  0
   23.8410   11.3450   22.8840 C   0  0  0  0  0  0  0  0  0  0  0  0
   23.4680   11.5170   24.2230 N   0  0  0  0  0  0  0  0  0  0  0  0
   22.7190   12.5390   24.7800 C   0  0  0  0  0  0  0  0  0  0  0  0
   22.3630   13.5520   24.1920 O   0  0  0  0  0  0  0  0  0  0  0  0
   22.3120   12.3300   26.1910 C   0  0  0  0  0  0  0  0  0  0  0  0
   21.7700   11.1180   26.5810 C   0  0  0  0  0  0  0  0  0  0  0  0
   21.4060   10.9780   27.9090 C   0  0  0  0  0  0  0  0  0  0  0  0
   21.5930   12.0280   28.7870 C   0  0  0  0  0  0  0  0  0  0  0  0
   21.2470   11.9420   30.0830 F   0  0  0  0  0  0  0  0  0  0  0  0
   22.1350   13.1970   28.3030 C   0  0  0  0  0  0  0  0  0  0  0  0
   22.4920   13.3640   27.0190 N   0  0  0  0  0  0  0  0  0  0  0  0
   22.9960   10.7950   21.9280 C   0  0  0  0  0  0  0  0  0  0  0  0
   23.4700   10.6740   20.6340 C   0  0  0  0  0  0  0  0  0  0  0  0
   24.7480   11.0820   20.3050 C   0  0  0  0  0  0  0  0  0  0  0  0
   25.1990   10.9250   19.0340 F   0  0  0  0  0  0  0  0  0  0  0  0
   27.7180   12.8760   21.9920 C   0  0  0  0  0  0  0  0  0  0  0  0
   26.8720   14.3780   22.4160 S   0  0  0  0  0  0  0  0  0  0  0  0
   27.8780   15.2890   22.9320 O   0  0  0  0  0  0  0  0  0  0  0  0
   25.6210   14.1150   23.0570 O   0  0  0  0  0  0  0  0  0  0  0  0
   25.8230   16.6966   21.8786 H   0  0  0  0  0  0  0  0  0  0  0  0
   26.6762   16.9774   20.3230 H   0  0  0  0  0  0  0  0  0  0  0  0
   24.9767   16.3958   20.3230 H   0  0  0  0  0  0  0  0  0  0  0  0
   26.7720   14.5360   17.6560 H   0  0  0  0  0  0  0  0  0  0  0  0
   26.3800   15.9160   18.5790 H   0  0  0  0  0  0  0  0  0  0  0  0
   28.2061   10.4401   21.4142 H   0  0  0  0  0  0  0  0  0  0  0  0
   27.2498   10.2355   19.9075 H   0  0  0  0  0  0  0  0  0  0  0  0
   28.7141   11.2759   19.9075 H   0  0  0  0  0  0  0  0  0  0  0  0
   25.7417   12.2233   23.3092 H   0  0  0  0  0  0  0  0  0  0  0  0
   23.7770   10.8220   24.8480 H   0  0  0  0  0  0  0  0  0  0  0  0
   21.6335   10.2964   25.8624 H   0  0  0  0  0  0  0  0  0  0  0  0
   20.9690   10.0332   28.2644 H   0  0  0  0  0  0  0  0  0  0  0  0
   22.2828   14.0343   29.0010 H   0  0  0  0  0  0  0  0  0  0  0  0
   21.9803   10.4656   22.1922 H   0  0  0  0  0  0  0  0  0  0  0  0
   22.8200   10.2469   19.8561 H   0  0  0  0  0  0  0  0  0  0  0  0
   27.7662   12.2261   22.8782 H   0  0  0  0  0  0  0  0  0  0  0  0
   28.7320   13.1264   21.6469 H   0  0  0  0  0  0  0  0  0  0  0  0
  1  2  1  0
  2  3  1  0
  3  4  1  0
  3  5  2  0
  5  6  1  0
  6  7  1  6
  6  8  1  0
  8  9  2  0
  9 10  1  0
 10 11  1  0
 11 12  1  0
 12 13  2  0
 12 14  1  0
 14 15  2  0
 15 16  1  0
 16 17  2  0
 17 18  1  0
 17 19  1  0
 19 20  2  0
 10 21  2  0
 21 22  1  0
 22 23  2  0
 23 24  1  0
  6 25  1  0
 25 26  1  0
 26 27  2  0
 26 28  2  0
 26  2  1  0
 23  8  1  0
 20 14  1  0
  1 29  1  0
  1 30  1  0
  1 31  1  0
  4 32  1  0
  4 33  1  0
  7 34  1  0
  7 35  1  0
  7 36  1  0
  9 37  1  0
 11 38  1  0
 15 39  1  0
 16 40  1  0
 19 41  1  0
 21 42  1  0
 22 43  1  0
 25 44  1  0
 25 45  1  0
M  END
>  <meeko>  (9)
{"is_sidechain": false}

>  <source_group>  (9)
BACE1-476

>  <source_system>  (9)
BACE1_verubecestat

>  <source_run>  (9)
alternate_476_seed5519_ex32

>  <source_seed>  (9)
5519

>  <vina_pose_rank>  (9)
9

>  <vina_affinity_kcal_mol>  (9)
-7.9279999999999999

>  <vina_rmsd_to_crystal_angstrom>  (9)
7.2831999999999999

$$$$
BACE1_verubecestat__alternate_476_seed5519_ex32__pose10
     RDKit          3D

 45 47  0  0  0  0  0  0  0  0999 V2000
   25.1840    9.8570   20.8040 C   0  0  0  0  0  0  0  0  0  0  0  0
   25.3000   11.3260   20.8850 N   0  0  0  0  0  0  0  0  0  0  0  0
   26.4390   12.0340   20.4400 C   0  0  0  0  0  0  0  0  0  0  0  0
   27.3580   11.2550   19.7900 N   0  0  0  0  0  0  0  0  0  0  0  0
   26.6040   13.3110   20.6020 N   0  0  0  0  0  0  0  0  0  0  0  0
   25.6620   14.1140   21.3790 C   0  0  2  0  0  0  0  0  0  0  0  0
   25.9640   15.5420   20.9150 C   0  0  0  0  0  0  0  0  0  0  0  0
   25.9270   14.0180   22.8740 C   0  0  0  0  0  0  0  0  0  0  0  0
   24.8760   13.9540   23.7880 C   0  0  0  0  0  0  0  0  0  0  0  0
   25.0870   13.8690   25.1460 C   0  0  0  0  0  0  0  0  0  0  0  0
   23.9450   13.8080   25.9550 N   0  0  0  0  0  0  0  0  0  0  0  0
   23.2250   12.6910   26.3400 C   0  0  0  0  0  0  0  0  0  0  0  0
   23.4060   11.5570   25.9170 O   0  0  0  0  0  0  0  0  0  0  0  0
   22.1890   12.9300   27.3740 C   0  0  0  0  0  0  0  0  0  0  0  0
   22.5100   13.6270   28.5260 C   0  0  0  0  0  0  0  0  0  0  0  0
   21.5050   13.8190   29.4580 C   0  0  0  0  0  0  0  0  0  0  0  0
   20.2380   13.3250   29.2150 C   0  0  0  0  0  0  0  0  0  0  0  0
   19.2340   13.4800   30.0940 F   0  0  0  0  0  0  0  0  0  0  0  0
   20.0180   12.6400   28.0420 C   0  0  0  0  0  0  0  0  0  0  0  0
   20.9740   12.4320   27.1220 N   0  0  0  0  0  0  0  0  0  0  0  0
   26.3780   13.8210   25.6560 C   0  0  0  0  0  0  0  0  0  0  0  0
   27.4330   13.8870   24.7630 C   0  0  0  0  0  0  0  0  0  0  0  0
   27.2070   14.0040   23.4060 C   0  0  0  0  0  0  0  0  0  0  0  0
   28.2590   14.0970   22.5530 F   0  0  0  0  0  0  0  0  0  0  0  0
   24.2430   13.8020   20.9590 C   0  0  0  0  0  0  0  0  0  0  0  0
   23.8350   12.1150   21.3280 S   0  0  0  0  0  0  0  0  0  0  0  0
   22.8230   11.7130   20.3680 O   0  0  0  0  0  0  0  0  0  0  0  0
   23.7400   11.8920   22.7370 O   0  0  0  0  0  0  0  0  0  0  0  0
   25.1507    9.4353   21.8194 H   0  0  0  0  0  0  0  0  0  0  0  0
   24.2621    9.5911   20.2661 H   0  0  0  0  0  0  0  0  0  0  0  0
   26.0528    9.4497   20.2661 H   0  0  0  0  0  0  0  0  0  0  0  0
   28.1870   11.6580   19.4430 H   0  0  0  0  0  0  0  0  0  0  0  0
   27.1910   10.2920   19.6700 H   0  0  0  0  0  0  0  0  0  0  0  0
   26.1013   16.1913   21.7923 H   0  0  0  0  0  0  0  0  0  0  0  0
   26.8825   15.5443   20.3097 H   0  0  0  0  0  0  0  0  0  0  0  0
   25.1251   15.9160   20.3097 H   0  0  0  0  0  0  0  0  0  0  0  0
   23.8427   13.9720   23.4112 H   0  0  0  0  0  0  0  0  0  0  0  0
   23.6120   14.6710   26.2940 H   0  0  0  0  0  0  0  0  0  0  0  0
   23.5259   14.0138   28.6944 H   0  0  0  0  0  0  0  0  0  0  0  0
   21.7147   14.3638   30.3903 H   0  0  0  0  0  0  0  0  0  0  0  0
   19.0103   12.2436   27.8485 H   0  0  0  0  0  0  0  0  0  0  0  0
   26.5565   13.7331   26.7379 H   0  0  0  0  0  0  0  0  0  0  0  0
   28.4658   13.8457   25.1394 H   0  0  0  0  0  0  0  0  0  0  0  0
   23.5524   14.4667   21.4987 H   0  0  0  0  0  0  0  0  0  0  0  0
   24.1535   13.9578   19.8738 H   0  0  0  0  0  0  0  0  0  0  0  0
  1  2  1  0
  2  3  1  0
  3  4  1  0
  3  5  2  0
  5  6  1  0
  6  7  1  6
  6  8  1  0
  8  9  2  0
  9 10  1  0
 10 11  1  0
 11 12  1  0
 12 13  2  0
 12 14  1  0
 14 15  2  0
 15 16  1  0
 16 17  2  0
 17 18  1  0
 17 19  1  0
 19 20  2  0
 10 21  2  0
 21 22  1  0
 22 23  2  0
 23 24  1  0
  6 25  1  0
 25 26  1  0
 26 27  2  0
 26 28  2  0
 26  2  1  0
 23  8  1  0
 20 14  1  0
  1 29  1  0
  1 30  1  0
  1 31  1  0
  4 32  1  0
  4 33  1  0
  7 34  1  0
  7 35  1  0
  7 36  1  0
  9 37  1  0
 11 38  1  0
 15 39  1  0
 16 40  1  0
 19 41  1  0
 21 42  1  0
 22 43  1  0
 25 44  1  0
 25 45  1  0
M  END
>  <meeko>  (10)
{"is_sidechain": false}

>  <source_group>  (10)
BACE1-476

>  <source_system>  (10)
BACE1_verubecestat

>  <source_run>  (10)
alternate_476_seed5519_ex32

>  <source_seed>  (10)
5519

>  <vina_pose_rank>  (10)
10

>  <vina_affinity_kcal_mol>  (10)
-7.524

>  <vina_rmsd_to_crystal_angstrom>  (10)
7.9561000000000002

$$$$
BACE1_verubecestat__alternate_476_seed5519_ex32__pose11
     RDKit          3D

 45 47  0  0  0  0  0  0  0  0999 V2000
   16.7970   13.8800   26.5490 C   0  0  0  0  0  0  0  0  0  0  0  0
   17.7400   12.8220   26.9610 N   0  0  0  0  0  0  0  0  0  0  0  0
   17.7110   12.2190   28.2380 C   0  0  0  0  0  0  0  0  0  0  0  0
   16.6390   12.5910   29.0040 N   0  0  0  0  0  0  0  0  0  0  0  0
   18.5970   11.3670   28.6550 N   0  0  0  0  0  0  0  0  0  0  0  0
   19.7870   11.0490   27.8670 C   0  0  2  0  0  0  0  0  0  0  0  0
   20.2570    9.7250   28.4740 C   0  0  0  0  0  0  0  0  0  0  0  0
   20.8840   12.0880   28.0450 C   0  0  0  0  0  0  0  0  0  0  0  0
   21.9570   12.1600   27.1580 C   0  0  0  0  0  0  0  0  0  0  0  0
   22.9650   13.0880   27.2960 C   0  0  0  0  0  0  0  0  0  0  0  0
   23.9830   13.0550   26.3350 N   0  0  0  0  0  0  0  0  0  0  0  0
   23.8610   12.9760   24.9590 C   0  0  0  0  0  0  0  0  0  0  0  0
   22.8140   12.7870   24.3550 O   0  0  0  0  0  0  0  0  0  0  0  0
   25.1190   13.1750   24.1990 C   0  0  0  0  0  0  0  0  0  0  0  0
   26.3230   13.2850   24.8730 C   0  0  0  0  0  0  0  0  0  0  0  0
   27.4660   13.4720   24.1140 C   0  0  0  0  0  0  0  0  0  0  0  0
   27.3740   13.5380   22.7370 C   0  0  0  0  0  0  0  0  0  0  0  0
   28.4540   13.7280   21.9600 F   0  0  0  0  0  0  0  0  0  0  0  0
   26.1300   13.4230   22.1590 C   0  0  0  0  0  0  0  0  0  0  0  0
   25.0030   13.2470   22.8690 N   0  0  0  0  0  0  0  0  0  0  0  0
   22.9320   14.0130   28.3320 C   0  0  0  0  0  0  0  0  0  0  0  0
   21.8760   13.9530   29.2240 C   0  0  0  0  0  0  0  0  0  0  0  0
   20.8890   12.9970   29.0910 C   0  0  0  0  0  0  0  0  0  0  0  0
   19.8790   12.9410   29.9970 F   0  0  0  0  0  0  0  0  0  0  0  0
   19.3990   10.7660   26.4330 C   0  0  0  0  0  0  0  0  0  0  0  0
   18.7060   12.2130   25.6730 S   0  0  0  0  0  0  0  0  0  0  0  0
   17.8000   11.7450   24.6400 O   0  0  0  0  0  0  0  0  0  0  0  0
   19.6930   13.2290   25.4760 O   0  0  0  0  0  0  0  0  0  0  0  0
   16.3701   14.3590   27.4425 H   0  0  0  0  0  0  0  0  0  0  0  0
   17.3295   14.6324   25.9487 H   0  0  0  0  0  0  0  0  0  0  0  0
   15.9886   13.4372   25.9487 H   0  0  0  0  0  0  0  0  0  0  0  0
   16.5310   12.2240   29.9110 H   0  0  0  0  0  0  0  0  0  0  0  0
   15.9760   13.2260   28.6480 H   0  0  0  0  0  0  0  0  0  0  0  0
   20.2320    9.7954   29.5715 H   0  0  0  0  0  0  0  0  0  0  0  0
   19.5920    8.9135   28.1434 H   0  0  0  0  0  0  0  0  0  0  0  0
   21.2848    9.5144   28.1434 H   0  0  0  0  0  0  0  0  0  0  0  0
   22.0000   11.4506   26.3184 H   0  0  0  0  0  0  0  0  0  0  0  0
   24.9030   13.0950   26.6830 H   0  0  0  0  0  0  0  0  0  0  0  0
   26.3701   13.2261   25.9704 H   0  0  0  0  0  0  0  0  0  0  0  0
   28.4450   13.5678   24.6063 H   0  0  0  0  0  0  0  0  0  0  0  0
   26.0550   13.4778   21.0629 H   0  0  0  0  0  0  0  0  0  0  0  0
   23.7221   14.7707   28.4400 H   0  0  0  0  0  0  0  0  0  0  0  0
   21.8222   14.6770   30.0504 H   0  0  0  0  0  0  0  0  0  0  0  0
   20.2927   10.4562   25.8716 H   0  0  0  0  0  0  0  0  0  0  0  0
   18.6448    9.9653   26.4222 H   0  0  0  0  0  0  0  0  0  0  0  0
  1  2  1  0
  2  3  1  0
  3  4  1  0
  3  5  2  0
  5  6  1  0
  6  7  1  1
  6  8  1  0
  8  9  2  0
  9 10  1  0
 10 11  1  0
 11 12  1  0
 12 13  2  0
 12 14  1  0
 14 15  2  0
 15 16  1  0
 16 17  2  0
 17 18  1  0
 17 19  1  0
 19 20  2  0
 10 21  2  0
 21 22  1  0
 22 23  2  0
 23 24  1  0
  6 25  1  0
 25 26  1  0
 26 27  2  0
 26 28  2  0
 26  2  1  0
 23  8  1  0
 20 14  1  0
  1 29  1  0
  1 30  1  0
  1 31  1  0
  4 32  1  0
  4 33  1  0
  7 34  1  0
  7 35  1  0
  7 36  1  0
  9 37  1  0
 11 38  1  0
 15 39  1  0
 16 40  1  0
 19 41  1  0
 21 42  1  0
 22 43  1  0
 25 44  1  0
 25 45  1  0
M  END
>  <meeko>  (11)
{"is_sidechain": false}

>  <source_group>  (11)
BACE1-476

>  <source_system>  (11)
BACE1_verubecestat

>  <source_run>  (11)
alternate_476_seed5519_ex32

>  <source_seed>  (11)
5519

>  <vina_pose_rank>  (11)
11

>  <vina_affinity_kcal_mol>  (11)
-7.375

>  <vina_rmsd_to_crystal_angstrom>  (11)
7.0042

$$$$
BACE1_verubecestat__alternate_476_seed5519_ex32__pose12
     RDKit          3D

 45 47  0  0  0  0  0  0  0  0999 V2000
   28.8780   10.1390   21.7380 C   0  0  0  0  0  0  0  0  0  0  0  0
   28.3910   11.5290   21.6450 N   0  0  0  0  0  0  0  0  0  0  0  0
   29.2350   12.6530   21.7890 C   0  0  0  0  0  0  0  0  0  0  0  0
   30.5660   12.3410   21.8700 N   0  0  0  0  0  0  0  0  0  0  0  0
   28.8080   13.8770   21.8180 N   0  0  0  0  0  0  0  0  0  0  0  0
   27.3810   14.1930   21.8260 C   0  0  2  0  0  0  0  0  0  0  0  0
   27.3510   15.6610   21.3900 C   0  0  0  0  0  0  0  0  0  0  0  0
   26.7800   14.0830   23.2190 C   0  0  0  0  0  0  0  0  0  0  0  0
   25.4580   13.6800   23.4030 C   0  0  0  0  0  0  0  0  0  0  0  0
   24.8870   13.5740   24.6510 C   0  0  0  0  0  0  0  0  0  0  0  0
   23.5510   13.1560   24.6970 N   0  0  0  0  0  0  0  0  0  0  0  0
   23.0490   11.9330   25.1050 C   0  0  0  0  0  0  0  0  0  0  0  0
   23.7260   10.9500   25.3790 O   0  0  0  0  0  0  0  0  0  0  0  0
   21.5740   11.8670   25.2400 C   0  0  0  0  0  0  0  0  0  0  0  0
   20.9480   10.6420   25.3940 C   0  0  0  0  0  0  0  0  0  0  0  0
   19.5690   10.6380   25.5130 C   0  0  0  0  0  0  0  0  0  0  0  0
   18.8730   11.8310   25.4780 C   0  0  0  0  0  0  0  0  0  0  0  0
   17.5340   11.8770   25.5810 F   0  0  0  0  0  0  0  0  0  0  0  0
   19.5840   12.9980   25.3160 C   0  0  0  0  0  0  0  0  0  0  0  0
   20.9210   13.0330   25.1920 N   0  0  0  0  0  0  0  0  0  0  0  0
   25.6320   13.8500   25.7900 C   0  0  0  0  0  0  0  0  0  0  0  0
   26.9450   14.2550   25.6270 C   0  0  0  0  0  0  0  0  0  0  0  0
   27.4950   14.3870   24.3670 C   0  0  0  0  0  0  0  0  0  0  0  0
   28.7760   14.8150   24.2330 F   0  0  0  0  0  0  0  0  0  0  0  0
   26.6670   13.3980   20.7560 C   0  0  0  0  0  0  0  0  0  0  0  0
   26.7640   11.6590   21.0960 S   0  0  0  0  0  0  0  0  0  0  0  0
   26.6880   10.9810   19.8150 O   0  0  0  0  0  0  0  0  0  0  0  0
   25.9870   11.3010   22.2420 O   0  0  0  0  0  0  0  0  0  0  0  0
   28.9774    9.8553   22.7961 H   0  0  0  0  0  0  0  0  0  0  0  0
   28.1622    9.4658   21.2436 H   0  0  0  0  0  0  0  0  0  0  0  0
   29.8574   10.0598   21.2436 H   0  0  0  0  0  0  0  0  0  0  0  0
   31.2340   13.0570   21.9720 H   0  0  0  0  0  0  0  0  0  0  0  0
   30.8550   11.4010   21.8260 H   0  0  0  0  0  0  0  0  0  0  0  0
   27.3378   16.3076   22.2798 H   0  0  0  0  0  0  0  0  0  0  0  0
   28.2448   15.8832   20.7885 H   0  0  0  0  0  0  0  0  0  0  0  0
   26.4489   15.8465   20.7885 H   0  0  0  0  0  0  0  0  0  0  0  0
   24.8495   13.4381   22.5192 H   0  0  0  0  0  0  0  0  0  0  0  0
   22.8840   13.8170   24.4000 H   0  0  0  0  0  0  0  0  0  0  0  0
   21.5253    9.7061   25.4208 H   0  0  0  0  0  0  0  0  0  0  0  0
   19.0287    9.6876   25.6351 H   0  0  0  0  0  0  0  0  0  0  0  0
   19.0306   13.9482   25.2866 H   0  0  0  0  0  0  0  0  0  0  0  0
   25.1911   13.7496   26.7927 H   0  0  0  0  0  0  0  0  0  0  0  0
   27.5590   14.4748   26.5128 H   0  0  0  0  0  0  0  0  0  0  0  0
   25.6101   13.7015   20.7256 H   0  0  0  0  0  0  0  0  0  0  0  0
   27.1493   13.5962   19.7874 H   0  0  0  0  0  0  0  0  0  0  0  0
  1  2  1  0
  2  3  1  0
  3  4  1  0
  3  5  2  0
  5  6  1  0
  6  7  1  6
  6  8  1  0
  8  9  2  0
  9 10  1  0
 10 11  1  0
 11 12  1  0
 12 13  2  0
 12 14  1  0
 14 15  2  0
 15 16  1  0
 16 17  2  0
 17 18  1  0
 17 19  1  0
 19 20  2  0
 10 21  2  0
 21 22  1  0
 22 23  2  0
 23 24  1  0
  6 25  1  0
 25 26  1  0
 26 27  2  0
 26 28  2  0
 26  2  1  0
 23  8  1  0
 20 14  1  0
  1 29  1  0
  1 30  1  0
  1 31  1  0
  4 32  1  0
  4 33  1  0
  7 34  1  0
  7 35  1  0
  7 36  1  0
  9 37  1  0
 11 38  1  0
 15 39  1  0
 16 40  1  0
 19 41  1  0
 21 42  1  0
 22 43  1  0
 25 44  1  0
 25 45  1  0
M  END
>  <meeko>  (12)
{"is_sidechain": false}

>  <source_group>  (12)
BACE1-476

>  <source_system>  (12)
BACE1_verubecestat

>  <source_run>  (12)
alternate_476_seed5519_ex32

>  <source_seed>  (12)
5519

>  <vina_pose_rank>  (12)
12

>  <vina_affinity_kcal_mol>  (12)
-7.2649999999999997

>  <vina_rmsd_to_crystal_angstrom>  (12)
8.3543000000000003

$$$$
BACE1_verubecestat__alternate_476_seed5519_ex32__pose13
     RDKit          3D

 45 47  0  0  0  0  0  0  0  0999 V2000
   26.0780   16.0690   19.8910 C   0  0  0  0  0  0  0  0  0  0  0  0
   26.8970   15.0480   20.5740 N   0  0  0  0  0  0  0  0  0  0  0  0
   26.6810   13.6600   20.4230 C   0  0  0  0  0  0  0  0  0  0  0  0
   25.7480   13.3430   19.4720 N   0  0  0  0  0  0  0  0  0  0  0  0
   27.3180   12.7530   21.0970 N   0  0  0  0  0  0  0  0  0  0  0  0
   28.2410   13.1040   22.1750 C   0  0  2  0  0  0  0  0  0  0  0  0
   29.0770   11.8310   22.3380 C   0  0  0  0  0  0  0  0  0  0  0  0
   27.5140   13.3850   23.4800 C   0  0  0  0  0  0  0  0  0  0  0  0
   26.1570   13.0990   23.6250 C   0  0  0  0  0  0  0  0  0  0  0  0
   25.4730   13.3450   24.7930 C   0  0  0  0  0  0  0  0  0  0  0  0
   24.1130   13.0090   24.8070 N   0  0  0  0  0  0  0  0  0  0  0  0
   23.5370   11.7770   25.0600 C   0  0  0  0  0  0  0  0  0  0  0  0
   24.1510   10.7260   25.1910 O   0  0  0  0  0  0  0  0  0  0  0  0
   22.0620   11.7860   25.2110 C   0  0  0  0  0  0  0  0  0  0  0  0
   21.3810   10.5990   25.4180 C   0  0  0  0  0  0  0  0  0  0  0  0
   20.0050   10.6660   25.5500 C   0  0  0  0  0  0  0  0  0  0  0  0
   19.3650   11.8880   25.4760 C   0  0  0  0  0  0  0  0  0  0  0  0
   18.0310   12.0010   25.5890 F   0  0  0  0  0  0  0  0  0  0  0  0
   20.1290   13.0130   25.2610 C   0  0  0  0  0  0  0  0  0  0  0  0
   21.4640   12.9790   25.1240 N   0  0  0  0  0  0  0  0  0  0  0  0
   26.1310   13.8760   25.8950 C   0  0  0  0  0  0  0  0  0  0  0  0
   27.4780   14.1700   25.7690 C   0  0  0  0  0  0  0  0  0  0  0  0
   28.1440   13.9470   24.5800 C   0  0  0  0  0  0  0  0  0  0  0  0
   29.4580   14.2710   24.4730 F   0  0  0  0  0  0  0  0  0  0  0  0
   29.1820   14.1960   21.7170 C   0  0  0  0  0  0  0  0  0  0  0  0
   28.2870   15.6870   21.3630 S   0  0  0  0  0  0  0  0  0  0  0  0
   29.0560   16.4050   20.3630 O   0  0  0  0  0  0  0  0  0  0  0  0
   27.7610   16.2820   22.5520 O   0  0  0  0  0  0  0  0  0  0  0  0
   25.5744   16.6968   20.6408 H   0  0  0  0  0  0  0  0  0  0  0  0
   26.7253   16.6974   19.2617 H   0  0  0  0  0  0  0  0  0  0  0  0
   25.3241   15.5735   19.2617 H   0  0  0  0  0  0  0  0  0  0  0  0
   25.5290   12.4000   19.2930 H   0  0  0  0  0  0  0  0  0  0  0  0
   25.2980   14.0580   18.9660 H   0  0  0  0  0  0  0  0  0  0  0  0
   29.2165   11.6185   23.4082 H   0  0  0  0  0  0  0  0  0  0  0  0
   28.5567   10.9871   21.8614 H   0  0  0  0  0  0  0  0  0  0  0  0
   30.0582   11.9731   21.8614 H   0  0  0  0  0  0  0  0  0  0  0  0
   25.6138   12.6608   22.7748 H   0  0  0  0  0  0  0  0  0  0  0  0
   23.4870   13.7440   24.6130 H   0  0  0  0  0  0  0  0  0  0  0  0
   21.9136    9.6382   25.4755 H   0  0  0  0  0  0  0  0  0  0  0  0
   19.4219    9.7477   25.7136 H   0  0  0  0  0  0  0  0  0  0  0  0
   19.6210   13.9867   25.1985 H   0  0  0  0  0  0  0  0  0  0  0  0
   25.5977   14.0575   26.8398 H   0  0  0  0  0  0  0  0  0  0  0  0
   28.0251   14.5868   26.6275 H   0  0  0  0  0  0  0  0  0  0  0  0
   29.9170   14.3958   22.5107 H   0  0  0  0  0  0  0  0  0  0  0  0
   29.6912   13.8629   20.8006 H   0  0  0  0  0  0  0  0  0  0  0  0
  1  2  1  0
  2  3  1  0
  3  4  1  0
  3  5  2  0
  5  6  1  0
  6  7  1  1
  6  8  1  0
  8  9  2  0
  9 10  1  0
 10 11  1  0
 11 12  1  0
 12 13  2  0
 12 14  1  0
 14 15  2  0
 15 16  1  0
 16 17  2  0
 17 18  1  0
 17 19  1  0
 19 20  2  0
 10 21  2  0
 21 22  1  0
 22 23  2  0
 23 24  1  0
  6 25  1  0
 25 26  1  0
 26 27  2  0
 26 28  2  0
 26  2  1  0
 23  8  1  0
 20 14  1  0
  1 29  1  0
  1 30  1  0
  1 31  1  0
  4 32  1  0
  4 33  1  0
  7 34  1  0
  7 35  1  0
  7 36  1  0
  9 37  1  0
 11 38  1  0
 15 39  1  0
 16 40  1  0
 19 41  1  0
 21 42  1  0
 22 43  1  0
 25 44  1  0
 25 45  1  0
M  END
>  <meeko>  (13)
{"is_sidechain": false}

>  <source_group>  (13)
BACE1-476

>  <source_system>  (13)
BACE1_verubecestat

>  <source_run>  (13)
alternate_476_seed5519_ex32

>  <source_seed>  (13)
5519

>  <vina_pose_rank>  (13)
13

>  <vina_affinity_kcal_mol>  (13)
-7.173

>  <vina_rmsd_to_crystal_angstrom>  (13)
8.4050999999999991

$$$$
BACE1_verubecestat__alternate_476_seed5519_ex32__pose14
     RDKit          3D

 45 47  0  0  0  0  0  0  0  0999 V2000
   27.0620   10.2500   20.0780 C   0  0  0  0  0  0  0  0  0  0  0  0
   25.9610   11.1930   20.3570 N   0  0  0  0  0  0  0  0  0  0  0  0
   25.9700   12.5380   19.9240 C   0  0  0  0  0  0  0  0  0  0  0  0
   27.0160   12.8470   19.0960 N   0  0  0  0  0  0  0  0  0  0  0  0
   25.0650   13.4070   20.2510 N   0  0  0  0  0  0  0  0  0  0  0  0
   24.0080   13.0920   21.2110 C   0  0  2  0  0  0  0  0  0  0  0  0
   22.9570   14.1700   20.9300 C   0  0  0  0  0  0  0  0  0  0  0  0
   24.4820   13.2310   22.6490 C   0  0  0  0  0  0  0  0  0  0  0  0
   23.7010   12.7780   23.7110 C   0  0  0  0  0  0  0  0  0  0  0  0
   24.1040   12.8930   25.0220 C   0  0  0  0  0  0  0  0  0  0  0  0
   23.2260   12.3960   25.9950 N   0  0  0  0  0  0  0  0  0  0  0  0
   22.6890   13.0580   27.0840 C   0  0  0  0  0  0  0  0  0  0  0  0
   23.0060   14.1810   27.4520 O   0  0  0  0  0  0  0  0  0  0  0  0
   21.6250   12.3230   27.8100 C   0  0  0  0  0  0  0  0  0  0  0  0
   21.2080   11.0830   27.3570 C   0  0  0  0  0  0  0  0  0  0  0  0
   20.2110   10.4430   28.0710 C   0  0  0  0  0  0  0  0  0  0  0  0
   19.6750   11.0440   29.1940 C   0  0  0  0  0  0  0  0  0  0  0  0
   18.7000   10.4650   29.9140 F   0  0  0  0  0  0  0  0  0  0  0  0
   20.1520   12.2810   29.5630 C   0  0  0  0  0  0  0  0  0  0  0  0
   21.1140   12.9300   28.8870 N   0  0  0  0  0  0  0  0  0  0  0  0
   25.3350   13.4560   25.3330 C   0  0  0  0  0  0  0  0  0  0  0  0
   26.1220   13.9140   24.2910 C   0  0  0  0  0  0  0  0  0  0  0  0
   25.6910   13.8210   22.9830 C   0  0  0  0  0  0  0  0  0  0  0  0
   26.4700   14.3050   21.9810 F   0  0  0  0  0  0  0  0  0  0  0  0
   23.3780   11.7600   20.8690 C   0  0  0  0  0  0  0  0  0  0  0  0
   24.5620   10.4470   21.0280 S   0  0  0  0  0  0  0  0  0  0  0  0
   24.1490    9.4030   20.1090 O   0  0  0  0  0  0  0  0  0  0  0  0
   24.9180   10.2200   22.3940 O   0  0  0  0  0  0  0  0  0  0  0  0
   27.4843    9.8883   21.0271 H   0  0  0  0  0  0  0  0  0  0  0  0
   26.6768    9.3974   19.4995 H   0  0  0  0  0  0  0  0  0  0  0  0
   27.8453   10.7617   19.4995 H   0  0  0  0  0  0  0  0  0  0  0  0
   27.1090   13.7610   18.7420 H   0  0  0  0  0  0  0  0  0  0  0  0
   27.6740   12.1560   18.8550 H   0  0  0  0  0  0  0  0  0  0  0  0
   22.5726   14.5643   21.8822 H   0  0  0  0  0  0  0  0  0  0  0  0
   23.4149   14.9869   20.3530 H   0  0  0  0  0  0  0  0  0  0  0  0
   22.1287   13.7330   20.3530 H   0  0  0  0  0  0  0  0  0  0  0  0
   22.7285   12.3123   23.4937 H   0  0  0  0  0  0  0  0  0  0  0  0
   22.9570   11.4540   25.8880 H   0  0  0  0  0  0  0  0  0  0  0  0
   21.6532   10.6236   26.4621 H   0  0  0  0  0  0  0  0  0  0  0  0
   19.8456    9.4578   27.7456 H   0  0  0  0  0  0  0  0  0  0  0  0
   19.7244   12.7617   30.4553 H   0  0  0  0  0  0  0  0  0  0  0  0
   25.6742   13.5354   26.3764 H   0  0  0  0  0  0  0  0  0  0  0  0
   27.1046   14.3583   24.5081 H   0  0  0  0  0  0  0  0  0  0  0  0
   22.5367   11.5723   21.5524 H   0  0  0  0  0  0  0  0  0  0  0  0
   23.0240   11.7930   19.8281 H   0  0  0  0  0  0  0  0  0  0  0  0
  1  2  1  0
  2  3  1  0
  3  4  1  0
  3  5  2  0
  5  6  1  0
  6  7  1  1
  6  8  1  0
  8  9  2  0
  9 10  1  0
 10 11  1  0
 11 12  1  0
 12 13  2  0
 12 14  1  0
 14 15  2  0
 15 16  1  0
 16 17  2  0
 17 18  1  0
 17 19  1  0
 19 20  2  0
 10 21  2  0
 21 22  1  0
 22 23  2  0
 23 24  1  0
  6 25  1  0
 25 26  1  0
 26 27  2  0
 26 28  2  0
 26  2  1  0
 23  8  1  0
 20 14  1  0
  1 29  1  0
  1 30  1  0
  1 31  1  0
  4 32  1  0
  4 33  1  0
  7 34  1  0
  7 35  1  0
  7 36  1  0
  9 37  1  0
 11 38  1  0
 15 39  1  0
 16 40  1  0
 19 41  1  0
 21 42  1  0
 22 43  1  0
 25 44  1  0
 25 45  1  0
M  END
>  <meeko>  (14)
{"is_sidechain": false}

>  <source_group>  (14)
BACE1-476

>  <source_system>  (14)
BACE1_verubecestat

>  <source_run>  (14)
alternate_476_seed5519_ex32

>  <source_seed>  (14)
5519

>  <vina_pose_rank>  (14)
14

>  <vina_affinity_kcal_mol>  (14)
-7.1699999999999999

>  <vina_rmsd_to_crystal_angstrom>  (14)
7.9198000000000004

$$$$
BACE1_verubecestat__alternate_476_seed5519_ex32__pose15
     RDKit          3D

 45 47  0  0  0  0  0  0  0  0999 V2000
   15.2850   15.1030   27.7860 C   0  0  0  0  0  0  0  0  0  0  0  0
   15.8220   13.9520   27.0350 N   0  0  0  0  0  0  0  0  0  0  0  0
   15.5960   12.6100   27.4150 C   0  0  0  0  0  0  0  0  0  0  0  0
   14.7110   12.4690   28.4510 N   0  0  0  0  0  0  0  0  0  0  0  0
   16.1480   11.5920   26.8320 N   0  0  0  0  0  0  0  0  0  0  0  0
   17.1620   11.7590   25.7920 C   0  0  2  0  0  0  0  0  0  0  0  0
   17.1650   10.3960   25.0940 C   0  0  0  0  0  0  0  0  0  0  0  0
   18.5430   12.0130   26.3770 C   0  0  0  0  0  0  0  0  0  0  0  0
   19.5950   12.4500   25.5740 C   0  0  0  0  0  0  0  0  0  0  0  0
   20.8560   12.6850   26.0760 C   0  0  0  0  0  0  0  0  0  0  0  0
   21.8230   13.1250   25.1620 N   0  0  0  0  0  0  0  0  0  0  0  0
   22.5320   12.3770   24.2390 C   0  0  0  0  0  0  0  0  0  0  0  0
   22.5170   11.1550   24.1610 O   0  0  0  0  0  0  0  0  0  0  0  0
   23.3320   13.1620   23.2680 C   0  0  0  0  0  0  0  0  0  0  0  0
   23.4030   12.7600   21.9460 C   0  0  0  0  0  0  0  0  0  0  0  0
   24.1650   13.5290   21.0830 C   0  0  0  0  0  0  0  0  0  0  0  0
   24.8150   14.6520   21.5560 C   0  0  0  0  0  0  0  0  0  0  0  0
   25.5730   15.4240   20.7580 F   0  0  0  0  0  0  0  0  0  0  0  0
   24.6880   14.9680   22.8890 C   0  0  0  0  0  0  0  0  0  0  0  0
   23.9610   14.2380   23.7510 N   0  0  0  0  0  0  0  0  0  0  0  0
   21.1180   12.5120   27.4290 C   0  0  0  0  0  0  0  0  0  0  0  0
   20.0860   12.0760   28.2400 C   0  0  0  0  0  0  0  0  0  0  0  0
   18.8350   11.8130   27.7170 C   0  0  0  0  0  0  0  0  0  0  0  0
   17.8470   11.3570   28.5300 F   0  0  0  0  0  0  0  0  0  0  0  0
   16.7000   12.7770   24.7750 C   0  0  0  0  0  0  0  0  0  0  0  0
   16.5280   14.3780   25.5230 S   0  0  0  0  0  0  0  0  0  0  0  0
   15.5160   15.0850   24.7600 O   0  0  0  0  0  0  0  0  0  0  0  0
   17.7970   14.9310   25.8820 O   0  0  0  0  0  0  0  0  0  0  0  0
   15.3747   14.9107   28.8653 H   0  0  0  0  0  0  0  0  0  0  0  0
   15.8539   16.0079   27.5263 H   0  0  0  0  0  0  0  0  0  0  0  0
   14.2260   15.2485   27.5263 H   0  0  0  0  0  0  0  0  0  0  0  0
   14.4890   11.5710   28.7880 H   0  0  0  0  0  0  0  0  0  0  0  0
   14.2980   13.2640   28.8580 H   0  0  0  0  0  0  0  0  0  0  0  0
   17.1668    9.5969   25.8500 H   0  0  0  0  0  0  0  0  0  0  0  0
   16.2671   10.3040   24.4653 H   0  0  0  0  0  0  0  0  0  0  0  0
   18.0633   10.3080   24.4653 H   0  0  0  0  0  0  0  0  0  0  0  0
   19.4118   12.6130   24.5017 H   0  0  0  0  0  0  0  0  0  0  0  0
   22.0230   14.0890   25.1790 H   0  0  0  0  0  0  0  0  0  0  0  0
   22.8735   11.8625   21.5936 H   0  0  0  0  0  0  0  0  0  0  0  0
   24.2525   13.2463   20.0235 H   0  0  0  0  0  0  0  0  0  0  0  0
   25.2067   15.8613   23.2671 H   0  0  0  0  0  0  0  0  0  0  0  0
   22.1165   12.7157   27.8432 H   0  0  0  0  0  0  0  0  0  0  0  0
   20.2640   11.9367   29.3165 H   0  0  0  0  0  0  0  0  0  0  0  0
   17.4385   12.8358   23.9618 H   0  0  0  0  0  0  0  0  0  0  0  0
   15.7220   12.4641   24.3805 H   0  0  0  0  0  0  0  0  0  0  0  0
  1  2  1  0
  2  3  1  0
  3  4  1  0
  3  5  2  0
  5  6  1  0
  6  7  1  6
  6  8  1  0
  8  9  2  0
  9 10  1  0
 10 11  1  0
 11 12  1  0
 12 13  2  0
 12 14  1  0
 14 15  2  0
 15 16  1  0
 16 17  2  0
 17 18  1  0
 17 19  1  0
 19 20  2  0
 10 21  2  0
 21 22  1  0
 22 23  2  0
 23 24  1  0
  6 25  1  0
 25 26  1  0
 26 27  2  0
 26 28  2  0
 26  2  1  0
 23  8  1  0
 20 14  1  0
  1 29  1  0
  1 30  1  0
  1 31  1  0
  4 32  1  0
  4 33  1  0
  7 34  1  0
  7 35  1  0
  7 36  1  0
  9 37  1  0
 11 38  1  0
 15 39  1  0
 16 40  1  0
 19 41  1  0
 21 42  1  0
 22 43  1  0
 25 44  1  0
 25 45  1  0
M  END
>  <meeko>  (15)
{"is_sidechain": false}

>  <source_group>  (15)
BACE1-476

>  <source_system>  (15)
BACE1_verubecestat

>  <source_run>  (15)
alternate_476_seed5519_ex32

>  <source_seed>  (15)
5519

>  <vina_pose_rank>  (15)
15

>  <vina_affinity_kcal_mol>  (15)
-7.0380000000000003

>  <vina_rmsd_to_crystal_angstrom>  (15)
7.6673999999999998

$$$$
BACE1_verubecestat__alternate_476_seed5519_ex32__pose16
     RDKit          3D

 45 47  0  0  0  0  0  0  0  0999 V2000
   27.2500   13.7630   25.2410 C   0  0  0  0  0  0  0  0  0  0  0  0
   26.9910   13.4260   23.8280 N   0  0  0  0  0  0  0  0  0  0  0  0
   27.8990   12.6920   23.0320 C   0  0  0  0  0  0  0  0  0  0  0  0
   28.9670   12.1910   23.7270 N   0  0  0  0  0  0  0  0  0  0  0  0
   27.7380   12.4800   21.7620 N   0  0  0  0  0  0  0  0  0  0  0  0
   26.6460   13.0990   21.0130 C   0  0  2  0  0  0  0  0  0  0  0  0
   26.5610   12.2330   19.7530 C   0  0  0  0  0  0  0  0  0  0  0  0
   26.9700   14.5280   20.6060 C   0  0  0  0  0  0  0  0  0  0  0  0
   28.1760   15.1240   20.9710 C   0  0  0  0  0  0  0  0  0  0  0  0
   28.4940   16.4160   20.6200 C   0  0  0  0  0  0  0  0  0  0  0  0
   29.7390   16.8950   21.0480 N   0  0  0  0  0  0  0  0  0  0  0  0
   30.1570   17.1620   22.3400 C   0  0  0  0  0  0  0  0  0  0  0  0
   29.4380   17.1410   23.3300 O   0  0  0  0  0  0  0  0  0  0  0  0
   31.6020   17.4560   22.4900 C   0  0  0  0  0  0  0  0  0  0  0  0
   32.1460   17.6260   23.7520 C   0  0  0  0  0  0  0  0  0  0  0  0
   33.4990   17.9010   23.8330 C   0  0  0  0  0  0  0  0  0  0  0  0
   34.2530   17.9930   22.6790 C   0  0  0  0  0  0  0  0  0  0  0  0
   35.5690   18.2680   22.7080 F   0  0  0  0  0  0  0  0  0  0  0  0
   33.6210   17.8150   21.4700 C   0  0  0  0  0  0  0  0  0  0  0  0
   32.3090   17.5520   21.3590 N   0  0  0  0  0  0  0  0  0  0  0  0
   27.6160   17.1740   19.8550 C   0  0  0  0  0  0  0  0  0  0  0  0
   26.4120   16.5990   19.4870 C   0  0  0  0  0  0  0  0  0  0  0  0
   26.0930   15.3130   19.8740 C   0  0  0  0  0  0  0  0  0  0  0  0
   24.8930   14.7830   19.5240 F   0  0  0  0  0  0  0  0  0  0  0  0
   25.3410   12.9250   21.7580 C   0  0  0  0  0  0  0  0  0  0  0  0
   25.3880   13.7820   23.3120 S   0  0  0  0  0  0  0  0  0  0  0  0
   24.4830   13.0760   24.2020 O   0  0  0  0  0  0  0  0  0  0  0  0
   25.3930   15.2000   23.1320 O   0  0  0  0  0  0  0  0  0  0  0  0
   26.7092   13.0593   25.8909 H   0  0  0  0  0  0  0  0  0  0  0  0
   28.3291   13.6932   25.4428 H   0  0  0  0  0  0  0  0  0  0  0  0
   26.9048   14.7878   25.4428 H   0  0  0  0  0  0  0  0  0  0  0  0
   29.6550   11.6640   23.2590 H   0  0  0  0  0  0  0  0  0  0  0  0
   29.0470   12.3560   24.6940 H   0  0  0  0  0  0  0  0  0  0  0  0
   26.4573   11.1763   20.0406 H   0  0  0  0  0  0  0  0  0  0  0  0
   25.6885   12.5380   19.1566 H   0  0  0  0  0  0  0  0  0  0  0  0
   27.4762   12.3625   19.1566 H   0  0  0  0  0  0  0  0  0  0  0  0
   28.8990   14.5410   21.5604 H   0  0  0  0  0  0  0  0  0  0  0  0
   30.4020   17.0620   20.3390 H   0  0  0  0  0  0  0  0  0  0  0  0
   31.5251   17.5453   24.6564 H   0  0  0  0  0  0  0  0  0  0  0  0
   33.9739   18.0462   24.8145 H   0  0  0  0  0  0  0  0  0  0  0  0
   34.2193   17.8918   20.5501 H   0  0  0  0  0  0  0  0  0  0  0  0
   27.8702   18.2002   19.5510 H   0  0  0  0  0  0  0  0  0  0  0  0
   25.6996   17.1747   18.8778 H   0  0  0  0  0  0  0  0  0  0  0  0
   24.5198   13.3287   21.1475 H   0  0  0  0  0  0  0  0  0  0  0  0
   25.1825   11.8534   21.9492 H   0  0  0  0  0  0  0  0  0  0  0  0
  1  2  1  0
  2  3  1  0
  3  4  1  0
  3  5  2  0
  5  6  1  0
  6  7  1  6
  6  8  1  0
  8  9  2  0
  9 10  1  0
 10 11  1  0
 11 12  1  0
 12 13  2  0
 12 14  1  0
 14 15  2  0
 15 16  1  0
 16 17  2  0
 17 18  1  0
 17 19  1  0
 19 20  2  0
 10 21  2  0
 21 22  1  0
 22 23  2  0
 23 24  1  0
  6 25  1  0
 25 26  1  0
 26 27  2  0
 26 28  2  0
 26  2  1  0
 23  8  1  0
 20 14  1  0
  1 29  1  0
  1 30  1  0
  1 31  1  0
  4 32  1  0
  4 33  1  0
  7 34  1  0
  7 35  1  0
  7 36  1  0
  9 37  1  0
 11 38  1  0
 15 39  1  0
 16 40  1  0
 19 41  1  0
 21 42  1  0
 22 43  1  0
 25 44  1  0
 25 45  1  0
M  END
>  <meeko>  (16)
{"is_sidechain": false}

>  <source_group>  (16)
BACE1-476

>  <source_system>  (16)
BACE1_verubecestat

>  <source_run>  (16)
alternate_476_seed5519_ex32

>  <source_seed>  (16)
5519

>  <vina_pose_rank>  (16)
16

>  <vina_affinity_kcal_mol>  (16)
-7.0220000000000002

>  <vina_rmsd_to_crystal_angstrom>  (16)
6.9611000000000001

$$$$
BACE1_verubecestat__alternate_476_seed5519_ex32__pose17
     RDKit          3D

 45 47  0  0  0  0  0  0  0  0999 V2000
   27.0960   11.0980   19.9520 C   0  0  0  0  0  0  0  0  0  0  0  0
   25.9410   11.8680   20.4530 N   0  0  0  0  0  0  0  0  0  0  0  0
   25.7330   13.2310   20.1450 C   0  0  0  0  0  0  0  0  0  0  0  0
   26.6110   13.7330   19.2220 N   0  0  0  0  0  0  0  0  0  0  0  0
   24.7860   13.9510   20.6630 N   0  0  0  0  0  0  0  0  0  0  0  0
   23.9160   13.4330   21.7170 C   0  0  2  0  0  0  0  0  0  0  0  0
   22.7180   14.3850   21.6720 C   0  0  0  0  0  0  0  0  0  0  0  0
   24.5650   13.5250   23.0900 C   0  0  0  0  0  0  0  0  0  0  0  0
   25.8510   14.0400   23.2450 C   0  0  0  0  0  0  0  0  0  0  0  0
   26.4640   14.1330   24.4740 C   0  0  0  0  0  0  0  0  0  0  0  0
   27.7570   14.6710   24.4920 N   0  0  0  0  0  0  0  0  0  0  0  0
   28.9640   14.0050   24.3780 C   0  0  0  0  0  0  0  0  0  0  0  0
   29.0990   12.7880   24.3710 O   0  0  0  0  0  0  0  0  0  0  0  0
   30.1550   14.8750   24.2200 C   0  0  0  0  0  0  0  0  0  0  0  0
   30.6110   15.1980   22.9540 C   0  0  0  0  0  0  0  0  0  0  0  0
   31.7270   16.0110   22.8650 C   0  0  0  0  0  0  0  0  0  0  0  0
   32.3380   16.4700   24.0160 C   0  0  0  0  0  0  0  0  0  0  0  0
   33.4290   17.2540   23.9790 F   0  0  0  0  0  0  0  0  0  0  0  0
   31.8130   16.0880   25.2300 C   0  0  0  0  0  0  0  0  0  0  0  0
   30.7350   15.2960   25.3480 N   0  0  0  0  0  0  0  0  0  0  0  0
   25.7970   13.7290   25.6240 C   0  0  0  0  0  0  0  0  0  0  0  0
   24.5210   13.2120   25.4890 C   0  0  0  0  0  0  0  0  0  0  0  0
   23.9310   13.0950   24.2450 C   0  0  0  0  0  0  0  0  0  0  0  0
   22.6890   12.5580   24.1370 F   0  0  0  0  0  0  0  0  0  0  0  0
   23.4060   12.0600   21.3410 C   0  0  0  0  0  0  0  0  0  0  0  0
   24.7460   10.9020   21.2280 S   0  0  0  0  0  0  0  0  0  0  0  0
   24.3350    9.8840   20.2780 O   0  0  0  0  0  0  0  0  0  0  0  0
   25.3110   10.6230   22.5110 O   0  0  0  0  0  0  0  0  0  0  0  0
   27.6759   10.7114   20.8030 H   0  0  0  0  0  0  0  0  0  0  0  0
   26.7383   10.2570   19.3398 H   0  0  0  0  0  0  0  0  0  0  0  0
   27.7347   11.7516   19.3398 H   0  0  0  0  0  0  0  0  0  0  0  0
   26.5460   14.6750   18.9420 H   0  0  0  0  0  0  0  0  0  0  0  0
   27.3060   13.1520   18.8370 H   0  0  0  0  0  0  0  0  0  0  0  0
   22.4072   14.6320   22.6979 H   0  0  0  0  0  0  0  0  0  0  0  0
   23.0018   15.3067   21.1429 H   0  0  0  0  0  0  0  0  0  0  0  0
   21.8842   13.9004   21.1429 H   0  0  0  0  0  0  0  0  0  0  0  0
   26.3954   14.3844   22.3534 H   0  0  0  0  0  0  0  0  0  0  0  0
   27.8140   15.6480   24.5980 H   0  0  0  0  0  0  0  0  0  0  0  0
   30.1052   14.8225   22.0523 H   0  0  0  0  0  0  0  0  0  0  0  0
   32.1271   16.2914   21.8795 H   0  0  0  0  0  0  0  0  0  0  0  0
   32.3002   16.4490   26.1478 H   0  0  0  0  0  0  0  0  0  0  0  0
   26.2699   13.8177   26.6132 H   0  0  0  0  0  0  0  0  0  0  0  0
   23.9686   12.8897   26.3840 H   0  0  0  0  0  0  0  0  0  0  0  0
   22.6956   11.7164   22.1073 H   0  0  0  0  0  0  0  0  0  0  0  0
   22.9098   12.1232   20.3613 H   0  0  0  0  0  0  0  0  0  0  0  0
  1  2  1  0
  2  3  1  0
  3  4  1  0
  3  5  2  0
  5  6  1  0
  6  7  1  1
  6  8  1  0
  8  9  2  0
  9 10  1  0
 10 11  1  0
 11 12  1  0
 12 13  2  0
 12 14  1  0
 14 15  2  0
 15 16  1  0
 16 17  2  0
 17 18  1  0
 17 19  1  0
 19 20  2  0
 10 21  2  0
 21 22  1  0
 22 23  2  0
 23 24  1  0
  6 25  1  0
 25 26  1  0
 26 27  2  0
 26 28  2  0
 26  2  1  0
 23  8  1  0
 20 14  1  0
  1 29  1  0
  1 30  1  0
  1 31  1  0
  4 32  1  0
  4 33  1  0
  7 34  1  0
  7 35  1  0
  7 36  1  0
  9 37  1  0
 11 38  1  0
 15 39  1  0
 16 40  1  0
 19 41  1  0
 21 42  1  0
 22 43  1  0
 25 44  1  0
 25 45  1  0
M  END
>  <meeko>  (17)
{"is_sidechain": false}

>  <source_group>  (17)
BACE1-476

>  <source_system>  (17)
BACE1_verubecestat

>  <source_run>  (17)
alternate_476_seed5519_ex32

>  <source_seed>  (17)
5519

>  <vina_pose_rank>  (17)
17

>  <vina_affinity_kcal_mol>  (17)
-6.9500000000000002

>  <vina_rmsd_to_crystal_angstrom>  (17)
6.0128000000000004

$$$$
BACE1_verubecestat__alternate_476_seed5519_ex32__pose18
     RDKit          3D

 45 47  0  0  0  0  0  0  0  0999 V2000
   24.7430   11.6320   19.2460 C   0  0  0  0  0  0  0  0  0  0  0  0
   24.7550   12.3020   20.5610 N   0  0  0  0  0  0  0  0  0  0  0  0
   23.9930   13.4580   20.8430 C   0  0  0  0  0  0  0  0  0  0  0  0
   23.1290   13.8120   19.8420 N   0  0  0  0  0  0  0  0  0  0  0  0
   24.0740   14.1220   21.9550 N   0  0  0  0  0  0  0  0  0  0  0  0
   25.0650   13.7910   22.9770 C   0  0  2  0  0  0  0  0  0  0  0  0
   24.5030   14.4640   24.2320 C   0  0  0  0  0  0  0  0  0  0  0  0
   26.4270   14.3920   22.6660 C   0  0  0  0  0  0  0  0  0  0  0  0
   26.6680   15.0420   21.4560 C   0  0  0  0  0  0  0  0  0  0  0  0
   27.8910   15.5920   21.1470 C   0  0  0  0  0  0  0  0  0  0  0  0
   28.0000   16.2190   19.8990 N   0  0  0  0  0  0  0  0  0  0  0  0
   28.3930   17.5170   19.6230 C   0  0  0  0  0  0  0  0  0  0  0  0
   28.5910   18.3860   20.4620 O   0  0  0  0  0  0  0  0  0  0  0  0
   28.6110   17.8210   18.1880 C   0  0  0  0  0  0  0  0  0  0  0  0
   27.5350   17.8510   17.3170 C   0  0  0  0  0  0  0  0  0  0  0  0
   27.7970   18.1380   15.9890 C   0  0  0  0  0  0  0  0  0  0  0  0
   29.0930   18.3840   15.5800 C   0  0  0  0  0  0  0  0  0  0  0  0
   29.3960   18.6570   14.2990 F   0  0  0  0  0  0  0  0  0  0  0  0
   30.0970   18.3250   16.5200 C   0  0  0  0  0  0  0  0  0  0  0  0
   29.8750   18.0430   17.8140 N   0  0  0  0  0  0  0  0  0  0  0  0
   28.9390   15.5360   22.0580 C   0  0  0  0  0  0  0  0  0  0  0  0
   28.7190   14.8920   23.2630 C   0  0  0  0  0  0  0  0  0  0  0  0
   27.4960   14.3160   23.5460 C   0  0  0  0  0  0  0  0  0  0  0  0
   27.3150   13.6640   24.7230 F   0  0  0  0  0  0  0  0  0  0  0  0
   25.0670   12.3010   23.2370 C   0  0  0  0  0  0  0  0  0  0  0  0
   25.5740   11.4120   21.7860 S   0  0  0  0  0  0  0  0  0  0  0  0
   24.9450   10.1050   21.8600 O   0  0  0  0  0  0  0  0  0  0  0  0
   26.9580   11.6230   21.4950 O   0  0  0  0  0  0  0  0  0  0  0  0
   24.7235   10.5417   19.3902 H   0  0  0  0  0  0  0  0  0  0  0  0
   23.8503   11.9436   18.6839 H   0  0  0  0  0  0  0  0  0  0  0  0
   25.6463   11.9114   18.6839 H   0  0  0  0  0  0  0  0  0  0  0  0
   22.5540   14.6050   19.9450 H   0  0  0  0  0  0  0  0  0  0  0  0
   23.0820   13.2740   19.0190 H   0  0  0  0  0  0  0  0  0  0  0  0
   24.9133   13.9726   25.1265 H   0  0  0  0  0  0  0  0  0  0  0  0
   24.7853   15.5271   24.2356 H   0  0  0  0  0  0  0  0  0  0  0  0
   23.4065   14.3758   24.2356 H   0  0  0  0  0  0  0  0  0  0  0  0
   25.8516   15.1178   20.7226 H   0  0  0  0  0  0  0  0  0  0  0  0
   27.7670   15.6650   19.1190 H   0  0  0  0  0  0  0  0  0  0  0  0
   26.5110   17.6542   17.6674 H   0  0  0  0  0  0  0  0  0  0  0  0
   26.9740   18.1702   15.2599 H   0  0  0  0  0  0  0  0  0  0  0  0
   31.1302   18.5180   16.1957 H   0  0  0  0  0  0  0  0  0  0  0  0
   29.9142   15.9900   21.8281 H   0  0  0  0  0  0  0  0  0  0  0  0
   29.5290   14.8381   24.0053 H   0  0  0  0  0  0  0  0  0  0  0  0
   25.7637   12.0787   24.0587 H   0  0  0  0  0  0  0  0  0  0  0  0
   24.0476   11.9874   23.5060 H   0  0  0  0  0  0  0  0  0  0  0  0
  1  2  1  0
  2  3  1  0
  3  4  1  0
  3  5  2  0
  5  6  1  0
  6  7  1  1
  6  8  1  0
  8  9  2  0
  9 10  1  0
 10 11  1  0
 11 12  1  0
 12 13  2  0
 12 14  1  0
 14 15  2  0
 15 16  1  0
 16 17  2  0
 17 18  1  0
 17 19  1  0
 19 20  2  0
 10 21  2  0
 21 22  1  0
 22 23  2  0
 23 24  1  0
  6 25  1  0
 25 26  1  0
 26 27  2  0
 26 28  2  0
 26  2  1  0
 23  8  1  0
 20 14  1  0
  1 29  1  0
  1 30  1  0
  1 31  1  0
  4 32  1  0
  4 33  1  0
  7 34  1  0
  7 35  1  0
  7 36  1  0
  9 37  1  0
 11 38  1  0
 15 39  1  0
 16 40  1  0
 19 41  1  0
 21 42  1  0
 22 43  1  0
 25 44  1  0
 25 45  1  0
M  END
>  <meeko>  (18)
{"is_sidechain": false}

>  <source_group>  (18)
BACE1-476

>  <source_system>  (18)
BACE1_verubecestat

>  <source_run>  (18)
alternate_476_seed5519_ex32

>  <source_seed>  (18)
5519

>  <vina_pose_rank>  (18)
18

>  <vina_affinity_kcal_mol>  (18)
-6.9409999999999998

>  <vina_rmsd_to_crystal_angstrom>  (18)
7.6924000000000001

$$$$
BACE1_verubecestat__alternate_476_seed5519_ex32__pose19
     RDKit          3D

 45 47  0  0  0  0  0  0  0  0999 V2000
   25.2760   11.8380   18.8680 C   0  0  0  0  0  0  0  0  0  0  0  0
   24.6420   12.1730   20.1590 N   0  0  0  0  0  0  0  0  0  0  0  0
   23.8730   13.3410   20.3580 C   0  0  0  0  0  0  0  0  0  0  0  0
   23.6390   14.0550   19.2140 N   0  0  0  0  0  0  0  0  0  0  0  0
   23.4010   13.7060   21.5100 N   0  0  0  0  0  0  0  0  0  0  0  0
   23.7350   12.9890   22.7400 C   0  0  2  0  0  0  0  0  0  0  0  0
   22.6360   13.4360   23.7070 C   0  0  0  0  0  0  0  0  0  0  0  0
   25.0840   13.4140   23.2990 C   0  0  0  0  0  0  0  0  0  0  0  0
   25.9520   14.2130   22.5570 C   0  0  0  0  0  0  0  0  0  0  0  0
   27.1790   14.6100   23.0360 C   0  0  0  0  0  0  0  0  0  0  0  0
   27.9540   15.4150   22.1900 N   0  0  0  0  0  0  0  0  0  0  0  0
   29.3200   15.6270   22.2230 C   0  0  0  0  0  0  0  0  0  0  0  0
   30.0730   15.2320   23.1040 O   0  0  0  0  0  0  0  0  0  0  0  0
   29.8750   16.3660   21.0630 C   0  0  0  0  0  0  0  0  0  0  0  0
   29.0240   17.0290   20.1960 C   0  0  0  0  0  0  0  0  0  0  0  0
   29.5960   17.7000   19.1290 C   0  0  0  0  0  0  0  0  0  0  0  0
   30.9670   17.6930   18.9660 C   0  0  0  0  0  0  0  0  0  0  0  0
   31.5660   18.3220   17.9410 F   0  0  0  0  0  0  0  0  0  0  0  0
   31.7300   16.9990   19.8780 C   0  0  0  0  0  0  0  0  0  0  0  0
   31.2040   16.3340   20.9200 N   0  0  0  0  0  0  0  0  0  0  0  0
   27.5910   14.2370   24.3100 C   0  0  0  0  0  0  0  0  0  0  0  0
   26.7440   13.4410   25.0600 C   0  0  0  0  0  0  0  0  0  0  0  0
   25.5290   13.0240   24.5530 C   0  0  0  0  0  0  0  0  0  0  0  0
   24.7290   12.2180   25.2980 F   0  0  0  0  0  0  0  0  0  0  0  0
   23.5660   11.5000   22.5350 C   0  0  0  0  0  0  0  0  0  0  0  0
   24.7100   10.9010   21.3170 S   0  0  0  0  0  0  0  0  0  0  0  0
   24.0960    9.7340   20.7100 O   0  0  0  0  0  0  0  0  0  0  0  0
   26.0580   10.9440   21.7930 O   0  0  0  0  0  0  0  0  0  0  0  0
   26.2350   11.3313   19.0510 H   0  0  0  0  0  0  0  0  0  0  0  0
   24.6130   11.1725   18.2957 H   0  0  0  0  0  0  0  0  0  0  0  0
   25.4522   12.7607   18.2957 H   0  0  0  0  0  0  0  0  0  0  0  0
   23.1110   14.8850   19.2500 H   0  0  0  0  0  0  0  0  0  0  0  0
   23.9980   13.7370   18.3530 H   0  0  0  0  0  0  0  0  0  0  0  0
   22.9797   13.2962   24.7425 H   0  0  0  0  0  0  0  0  0  0  0  0
   22.4076   14.4985   23.5367 H   0  0  0  0  0  0  0  0  0  0  0  0
   21.7309   12.8346   23.5367 H   0  0  0  0  0  0  0  0  0  0  0  0
   25.6449   14.5380   21.5520 H   0  0  0  0  0  0  0  0  0  0  0  0
   27.4620   15.8900   21.4810 H   0  0  0  0  0  0  0  0  0  0  0  0
   27.9347   17.0229   20.3490 H   0  0  0  0  0  0  0  0  0  0  0  0
   28.9590   18.2382   18.4117 H   0  0  0  0  0  0  0  0  0  0  0  0
   32.8221   16.9885   19.7472 H   0  0  0  0  0  0  0  0  0  0  0  0
   28.5618   14.5651   24.7100 H   0  0  0  0  0  0  0  0  0  0  0  0
   27.0423   13.1361   26.0739 H   0  0  0  0  0  0  0  0  0  0  0  0
   23.7483   10.9813   23.4877 H   0  0  0  0  0  0  0  0  0  0  0  0
   22.5417   11.3051   22.1845 H   0  0  0  0  0  0  0  0  0  0  0  0
  1  2  1  0
  2  3  1  0
  3  4  1  0
  3  5  2  0
  5  6  1  0
  6  7  1  1
  6  8  1  0
  8  9  2  0
  9 10  1  0
 10 11  1  0
 11 12  1  0
 12 13  2  0
 12 14  1  0
 14 15  2  0
 15 16  1  0
 16 17  2  0
 17 18  1  0
 17 19  1  0
 19 20  2  0
 10 21  2  0
 21 22  1  0
 22 23  2  0
 23 24  1  0
  6 25  1  0
 25 26  1  0
 26 27  2  0
 26 28  2  0
 26  2  1  0
 23  8  1  0
 20 14  1  0
  1 29  1  0
  1 30  1  0
  1 31  1  0
  4 32  1  0
  4 33  1  0
  7 34  1  0
  7 35  1  0
  7 36  1  0
  9 37  1  0
 11 38  1  0
 15 39  1  0
 16 40  1  0
 19 41  1  0
 21 42  1  0
 22 43  1  0
 25 44  1  0
 25 45  1  0
M  END
>  <meeko>  (19)
{"is_sidechain": false}

>  <source_group>  (19)
BACE1-476

>  <source_system>  (19)
BACE1_verubecestat

>  <source_run>  (19)
alternate_476_seed5519_ex32

>  <source_seed>  (19)
5519

>  <vina_pose_rank>  (19)
19

>  <vina_affinity_kcal_mol>  (19)
-6.8899999999999997

>  <vina_rmsd_to_crystal_angstrom>  (19)
6.4894999999999996

$$$$
BACE1_verubecestat__alternate_476_seed5519_ex32__pose20
     RDKit          3D

 45 47  0  0  0  0  0  0  0  0999 V2000
   14.7140   14.0310   24.5050 C   0  0  0  0  0  0  0  0  0  0  0  0
   15.4040   14.1110   25.8070 N   0  0  0  0  0  0  0  0  0  0  0  0
   16.2810   15.1630   26.1520 C   0  0  0  0  0  0  0  0  0  0  0  0
   16.3170   16.1790   25.2340 N   0  0  0  0  0  0  0  0  0  0  0  0
   16.9770   15.1940   27.2460 N   0  0  0  0  0  0  0  0  0  0  0  0
   17.0040   14.0620   28.1710 C   0  0  2  0  0  0  0  0  0  0  0  0
   17.5190   14.6920   29.4680 C   0  0  0  0  0  0  0  0  0  0  0  0
   17.9800   12.9840   27.7270 C   0  0  0  0  0  0  0  0  0  0  0  0
   18.8510   13.1970   26.6600 C   0  0  0  0  0  0  0  0  0  0  0  0
   19.7430   12.2390   26.2350 C   0  0  0  0  0  0  0  0  0  0  0  0
   20.5640   12.5810   25.1530 N   0  0  0  0  0  0  0  0  0  0  0  0
   21.8990   12.9460   25.1710 C   0  0  0  0  0  0  0  0  0  0  0  0
   22.5580   13.1550   26.1810 O   0  0  0  0  0  0  0  0  0  0  0  0
   22.5470   13.0440   23.8410 C   0  0  0  0  0  0  0  0  0  0  0  0
   22.9190   11.8930   23.1670 C   0  0  0  0  0  0  0  0  0  0  0  0
   23.5210   12.0430   21.9300 C   0  0  0  0  0  0  0  0  0  0  0  0
   23.7260   13.3080   21.4130 C   0  0  0  0  0  0  0  0  0  0  0  0
   24.3150   13.5030   20.2210 F   0  0  0  0  0  0  0  0  0  0  0  0
   23.3260   14.3920   22.1620 C   0  0  0  0  0  0  0  0  0  0  0  0
   22.7450   14.2780   23.3670 N   0  0  0  0  0  0  0  0  0  0  0  0
   19.8210   11.0130   26.8840 C   0  0  0  0  0  0  0  0  0  0  0  0
   18.9610   10.7830   27.9440 C   0  0  0  0  0  0  0  0  0  0  0  0
   18.0490   11.7420   28.3380 C   0  0  0  0  0  0  0  0  0  0  0  0
   17.1970   11.4800   29.3620 F   0  0  0  0  0  0  0  0  0  0  0  0
   15.5960   13.5790   28.4410 C   0  0  0  0  0  0  0  0  0  0  0  0
   14.8520   12.9530   26.9560 S   0  0  0  0  0  0  0  0  0  0  0  0
   13.4190   13.1400   27.1000 O   0  0  0  0  0  0  0  0  0  0  0  0
   15.4650   11.7330   26.5340 O   0  0  0  0  0  0  0  0  0  0  0  0
   13.6336   13.9057   24.6697 H   0  0  0  0  0  0  0  0  0  0  0  0
   14.8936   14.9560   23.9374 H   0  0  0  0  0  0  0  0  0  0  0  0
   15.1005   13.1716   23.9374 H   0  0  0  0  0  0  0  0  0  0  0  0
   16.8990   16.9580   25.3850 H   0  0  0  0  0  0  0  0  0  0  0  0
   15.7600   16.1300   24.4230 H   0  0  0  0  0  0  0  0  0  0  0  0
   17.0863   14.1627   30.3298 H   0  0  0  0  0  0  0  0  0  0  0  0
   18.6157   14.6145   29.5030 H   0  0  0  0  0  0  0  0  0  0  0  0
   17.2250   15.7514   29.5030 H   0  0  0  0  0  0  0  0  0  0  0  0
   18.8245   14.1654   26.1390 H   0  0  0  0  0  0  0  0  0  0  0  0
   20.1370   12.5590   24.2660 H   0  0  0  0  0  0  0  0  0  0  0  0
   22.7426   10.8967   23.5987 H   0  0  0  0  0  0  0  0  0  0  0  0
   23.8358   11.1569   21.3593 H   0  0  0  0  0  0  0  0  0  0  0  0
   23.4904   15.4000   21.7534 H   0  0  0  0  0  0  0  0  0  0  0  0
   20.5444   10.2481   26.5651 H   0  0  0  0  0  0  0  0  0  0  0  0
   19.0047    9.8233   28.4797 H   0  0  0  0  0  0  0  0  0  0  0  0
   15.6272   12.7783   29.1946 H   0  0  0  0  0  0  0  0  0  0  0  0
   14.9961   14.4250   28.8077 H   0  0  0  0  0  0  0  0  0  0  0  0
  1  2  1  0
  2  3  1  0
  3  4  1  0
  3  5  2  0
  5  6  1  0
  6  7  1  1
  6  8  1  0
  8  9  2  0
  9 10  1  0
 10 11  1  0
 11 12  1  0
 12 13  2  0
 12 14  1  0
 14 15  2  0
 15 16  1  0
 16 17  2  0
 17 18  1  0
 17 19  1  0
 19 20  2  0
 10 21  2  0
 21 22  1  0
 22 23  2  0
 23 24  1  0
  6 25  1  0
 25 26  1  0
 26 27  2  0
 26 28  2  0
 26  2  1  0
 23  8  1  0
 20 14  1  0
  1 29  1  0
  1 30  1  0
  1 31  1  0
  4 32  1  0
  4 33  1  0
  7 34  1  0
  7 35  1  0
  7 36  1  0
  9 37  1  0
 11 38  1  0
 15 39  1  0
 16 40  1  0
 19 41  1  0
 21 42  1  0
 22 43  1  0
 25 44  1  0
 25 45  1  0
M  END
>  <meeko>  (20)
{"is_sidechain": false}

>  <source_group>  (20)
BACE1-476

>  <source_system>  (20)
BACE1_verubecestat

>  <source_run>  (20)
alternate_476_seed5519_ex32

>  <source_seed>  (20)
5519

>  <vina_pose_rank>  (20)
20

>  <vina_affinity_kcal_mol>  (20)
-6.8440000000000003

>  <vina_rmsd_to_crystal_angstrom>  (20)
8.7184000000000008

$$$$
