BACE1_verubecestat_401__alternate_401_seed4409_ex32__pose01


 31 33  0  0  0  0  0  0  0  0999 V2000
   15.2070    4.5510   20.4010 C   0  0  0  0  0  0  0  0  0  0  0  0
   16.1180    4.3660   21.4390 C   0  0  0  0  0  0  0  0  0  0  0  0
   16.5320    5.3990   22.2490 C   0  0  0  0  0  0  0  0  0  0  0  0
   16.0620    6.6890   22.0390 C   0  0  0  0  0  0  0  0  0  0  0  0
   15.1540    6.8910   21.0150 C   0  0  0  0  0  0  0  0  0  0  0  0
   14.7230    5.8390   20.2300 C   0  0  0  0  0  0  0  0  0  0  0  0
   13.8090    6.0590   19.2510 F   0  0  0  0  0  0  0  0  0  0  0  0
   16.8590    4.7580   15.9990 C   0  0  0  0  0  0  0  0  0  0  0  0
   16.1280    4.1800   17.1440 N   0  0  0  0  0  0  0  0  0  0  0  0
   14.7220    4.2450   17.2710 C   0  0  0  0  0  0  0  0  0  0  0  0
   14.0880    4.7540   16.1700 N   0  0  0  0  0  0  0  0  0  0  0  0
   14.0740    3.8410   18.3190 N   0  0  0  0  0  0  0  0  0  0  0  0
   14.7670    3.3890   19.5250 C   0  0  0  0  0  0  0  0  0  0  0  0
   13.6860    2.5940   20.2640 C   0  0  0  0  0  0  0  0  0  0  0  0
   15.8620    2.4120   19.1580 C   0  0  0  0  0  0  0  0  0  0  0  0
   17.1060    3.2060   18.1720 S   0  0  0  0  0  0  0  0  0  0  0  0
   17.7020    2.1720   17.3460 O   0  0  0  0  0  0  0  0  0  0  0  0
   17.8540    4.1570   18.9330 O   0  0  0  0  0  0  0  0  0  0  0  0
   13.1070    4.8400   16.1630 H   0  0  0  0  0  0  0  0  0  0  0  0
   14.6120    5.0350   15.3850 H   0  0  0  0  0  0  0  0  0  0  0  0
   17.4530    5.0780   23.2540 N   0  0  0  0  0  0  0  0  0  0  0  0
   18.7950    5.4070   23.3240 C   0  0  0  0  0  0  0  0  0  0  0  0
   19.4370    5.9390   22.4280 O   0  0  0  0  0  0  0  0  0  0  0  0
   17.1000    4.5510   24.0080 H   0  0  0  0  0  0  0  0  0  0  0  0
   19.4550    5.1040   24.6170 C   0  0  0  0  0  0  0  0  0  0  0  0
   19.3290    5.9820   25.6800 C   0  0  0  0  0  0  0  0  0  0  0  0
   19.9670    5.6500   26.8620 C   0  0  0  0  0  0  0  0  0  0  0  0
   20.6930    4.4780   26.9470 C   0  0  0  0  0  0  0  0  0  0  0  0
   21.3370    4.1190   28.0710 F   0  0  0  0  0  0  0  0  0  0  0  0
   20.7640    3.6720   25.8340 C   0  0  0  0  0  0  0  0  0  0  0  0
   20.1610    3.9690   24.6710 N   0  0  0  0  0  0  0  0  0  0  0  0
  8  9  1  0
  9 10  1  0
 10 11  1  0
 10 12  2  0
 12 13  1  0
 13 14  1  0
 13  1  1  0
  1  2  2  0
  2  3  1  0
  3 21  1  0
 21 22  1  0
 22 23  2  0
 22 25  1  0
 25 26  2  0
 26 27  1  0
 27 28  2  0
 28 29  1  0
 28 30  1  0
 30 31  2  0
  3  4  2  0
  4  5  1  0
  5  6  2  0
  6  7  1  0
 13 15  1  0
 15 16  1  0
 16 17  2  0
 16 18  2  0
 16  9  1  0
  6  1  1  0
 31 25  1  0
 11 19  1  0
 11 20  1  0
 21 24  1  0
M  END
> <meeko>
{"is_sidechain": false}

> <source_group>
BACE1-401 observed AD isoform

> <source_system>
BACE1_verubecestat_401

> <source_run>
alternate_401_seed4409_ex32

> <source_seed>
4409

> <vina_pose_rank>
1

> <vina_affinity_kcal_mol>
-9.5220000000000002

> <vina_rmsd_to_crystal_angstrom>
10.9239

> <minimizedAffinity>
-9.52151

> <CNNscore>
0.1246923059

> <CNNaffinity>
5.4520468712

> <CNN_VS>
0.6798282862

> <CNNaffinity_variance>
0.3237446845

$$$$
BACE1_verubecestat_401__alternate_401_seed4409_ex32__pose02


 31 33  0  0  0  0  0  0  0  0999 V2000
   18.7800   11.3200   25.6980 C   0  0  0  0  0  0  0  0  0  0  0  0
   18.4820   10.4380   24.6610 C   0  0  0  0  0  0  0  0  0  0  0  0
   17.3480   10.5620   23.8920 C   0  0  0  0  0  0  0  0  0  0  0  0
   16.4340   11.5780   24.1450 C   0  0  0  0  0  0  0  0  0  0  0  0
   16.7150   12.4650   25.1690 C   0  0  0  0  0  0  0  0  0  0  0  0
   17.8740   12.3470   25.9110 C   0  0  0  0  0  0  0  0  0  0  0  0
   18.1410   13.2480   26.8920 F   0  0  0  0  0  0  0  0  0  0  0  0
   22.7360   11.2910   23.1490 C   0  0  0  0  0  0  0  0  0  0  0  0
   21.9180   11.2580   24.3770 N   0  0  0  0  0  0  0  0  0  0  0  0
   21.6400   10.0690   25.0860 C   0  0  0  0  0  0  0  0  0  0  0  0
   22.3200    8.9740   24.6230 N   0  0  0  0  0  0  0  0  0  0  0  0
   20.8360   10.0050   26.1020 N   0  0  0  0  0  0  0  0  0  0  0  0
   20.0440   11.1580   26.5280 C   0  0  0  0  0  0  0  0  0  0  0  0
   19.6510   10.7920   27.9620 C   0  0  0  0  0  0  0  0  0  0  0  0
   20.9200   12.3880   26.6090 C   0  0  0  0  0  0  0  0  0  0  0  0
   21.5480   12.8180   25.0060 S   0  0  0  0  0  0  0  0  0  0  0  0
   22.8090   13.5030   25.2240 O   0  0  0  0  0  0  0  0  0  0  0  0
   20.5120   13.2970   24.1450 O   0  0  0  0  0  0  0  0  0  0  0  0
   22.1930    8.0980   25.0530 H   0  0  0  0  0  0  0  0  0  0  0  0
   22.9360    9.0640   23.8600 H   0  0  0  0  0  0  0  0  0  0  0  0
   17.1660    9.6080   22.8820 N   0  0  0  0  0  0  0  0  0  0  0  0
   16.4480    8.4260   22.9390 C   0  0  0  0  0  0  0  0  0  0  0  0
   15.9500    7.9530   23.9520 O   0  0  0  0  0  0  0  0  0  0  0  0
   17.6040    9.8040   22.0230 H   0  0  0  0  0  0  0  0  0  0  0  0
   16.2670    7.7330   21.6410 C   0  0  0  0  0  0  0  0  0  0  0  0
   14.9990    7.3640   21.2260 C   0  0  0  0  0  0  0  0  0  0  0  0
   14.8880    6.7180   20.0080 C   0  0  0  0  0  0  0  0  0  0  0  0
   16.0190    6.4680   19.2560 C   0  0  0  0  0  0  0  0  0  0  0  0
   15.9620    5.8350   18.0710 F   0  0  0  0  0  0  0  0  0  0  0  0
   17.2380    6.8680   19.7560 C   0  0  0  0  0  0  0  0  0  0  0  0
   17.3780    7.4910   20.9370 N   0  0  0  0  0  0  0  0  0  0  0  0
  8  9  1  0
  9 10  1  0
 10 11  1  0
 10 12  2  0
 12 13  1  0
 13 14  1  0
 13  1  1  0
  1  2  2  0
  2  3  1  0
  3 21  1  0
 21 22  1  0
 22 23  2  0
 22 25  1  0
 25 26  2  0
 26 27  1  0
 27 28  2  0
 28 29  1  0
 28 30  1  0
 30 31  2  0
  3  4  2  0
  4  5  1  0
  5  6  2  0
  6  7  1  0
 13 15  1  0
 15 16  1  0
 16 17  2  0
 16 18  2  0
 16  9  1  0
  6  1  1  0
 31 25  1  0
 11 19  1  0
 11 20  1  0
 21 24  1  0
M  END
> <meeko>
{"is_sidechain": false}

> <source_group>
BACE1-401 observed AD isoform

> <source_system>
BACE1_verubecestat_401

> <source_run>
alternate_401_seed4409_ex32

> <source_seed>
4409

> <vina_pose_rank>
2

> <vina_affinity_kcal_mol>
-9.3689999999999998

> <vina_rmsd_to_crystal_angstrom>
9.4690999999999992

> <minimizedAffinity>
-8.69492

> <CNNscore>
0.6266083717

> <CNNaffinity>
5.8734374046

> <CNN_VS>
3.6803450584

> <CNNaffinity_variance>
0.0785359368

$$$$
BACE1_verubecestat_401__alternate_401_seed4409_ex32__pose03


 31 33  0  0  0  0  0  0  0  0999 V2000
   24.2240   11.7680   20.4640 C   0  0  0  0  0  0  0  0  0  0  0  0
   24.0270   12.2130   21.7700 C   0  0  0  0  0  0  0  0  0  0  0  0
   23.4260   11.4320   22.7310 C   0  0  0  0  0  0  0  0  0  0  0  0
   22.9680   10.1590   22.4180 C   0  0  0  0  0  0  0  0  0  0  0  0
   23.1580    9.6990   21.1270 C   0  0  0  0  0  0  0  0  0  0  0  0
   23.7910   10.4810   20.1810 C   0  0  0  0  0  0  0  0  0  0  0  0
   23.9910    9.9950   18.9290 F   0  0  0  0  0  0  0  0  0  0  0  0
   28.3550   13.5390   21.8580 C   0  0  0  0  0  0  0  0  0  0  0  0
   27.2350   13.2860   20.9300 N   0  0  0  0  0  0  0  0  0  0  0  0
   26.2210   14.2350   20.6700 C   0  0  0  0  0  0  0  0  0  0  0  0
   26.4500   15.4610   21.2340 N   0  0  0  0  0  0  0  0  0  0  0  0
   25.1740   13.9910   19.9430 N   0  0  0  0  0  0  0  0  0  0  0  0
   24.8940   12.6530   19.4250 C   0  0  0  0  0  0  0  0  0  0  0  0
   23.9000   12.9260   18.2920 C   0  0  0  0  0  0  0  0  0  0  0  0
   26.1370   12.0700   18.7920 C   0  0  0  0  0  0  0  0  0  0  0  0
   27.4120   11.8440   20.0060 S   0  0  0  0  0  0  0  0  0  0  0  0
   28.6770   11.9380   19.3000 O   0  0  0  0  0  0  0  0  0  0  0  0
   27.0820   10.8040   20.9300 O   0  0  0  0  0  0  0  0  0  0  0  0
   25.7990   16.1890   21.1090 H   0  0  0  0  0  0  0  0  0  0  0  0
   27.2650   15.6150   21.7650 H   0  0  0  0  0  0  0  0  0  0  0  0
   23.2870   12.0000   24.0040 N   0  0  0  0  0  0  0  0  0  0  0  0
   22.3540   12.9290   24.4310 C   0  0  0  0  0  0  0  0  0  0  0  0
   21.5600   13.5130   23.7060 O   0  0  0  0  0  0  0  0  0  0  0  0
   23.9350   11.6990   24.6820 H   0  0  0  0  0  0  0  0  0  0  0  0
   22.3310   13.1780   25.8930 C   0  0  0  0  0  0  0  0  0  0  0  0
   21.2790   12.7040   26.6580 C   0  0  0  0  0  0  0  0  0  0  0  0
   21.3080   12.9660   28.0160 C   0  0  0  0  0  0  0  0  0  0  0  0
   22.3630   13.6740   28.5580 C   0  0  0  0  0  0  0  0  0  0  0  0
   22.4290   13.9610   29.8700 F   0  0  0  0  0  0  0  0  0  0  0  0
   23.3600   14.1090   27.7150 C   0  0  0  0  0  0  0  0  0  0  0  0
   23.3570   13.8750   26.3920 N   0  0  0  0  0  0  0  0  0  0  0  0
  8  9  1  0
  9 10  1  0
 10 11  1  0
 10 12  2  0
 12 13  1  0
 13 14  1  0
 13  1  1  0
  1  2  2  0
  2  3  1  0
  3 21  1  0
 21 22  1  0
 22 23  2  0
 22 25  1  0
 25 26  2  0
 26 27  1  0
 27 28  2  0
 28 29  1  0
 28 30  1  0
 30 31  2  0
  3  4  2  0
  4  5  1  0
  5  6  2  0
  6  7  1  0
 13 15  1  0
 15 16  1  0
 16 17  2  0
 16 18  2  0
 16  9  1  0
  6  1  1  0
 31 25  1  0
 11 19  1  0
 11 20  1  0
 21 24  1  0
M  END
> <meeko>
{"is_sidechain": false}

> <source_group>
BACE1-401 observed AD isoform

> <source_system>
BACE1_verubecestat_401

> <source_run>
alternate_401_seed4409_ex32

> <source_seed>
4409

> <vina_pose_rank>
3

> <vina_affinity_kcal_mol>
-9.0340000000000007

> <vina_rmsd_to_crystal_angstrom>
7.1608999999999998

> <minimizedAffinity>
-8.42019

> <CNNscore>
0.5881191492

> <CNNaffinity>
5.6044697762

> <CNN_VS>
3.2960960865

> <CNNaffinity_variance>
0.1203356087

$$$$
BACE1_verubecestat_401__alternate_401_seed4409_ex32__pose04


 31 33  0  0  0  0  0  0  0  0999 V2000
   19.3640   11.7590   25.8740 C   0  0  0  0  0  0  0  0  0  0  0  0
   19.5270   10.4120   26.1930 C   0  0  0  0  0  0  0  0  0  0  0  0
   20.4660    9.6180   25.5750 C   0  0  0  0  0  0  0  0  0  0  0  0
   21.2830   10.1390   24.5790 C   0  0  0  0  0  0  0  0  0  0  0  0
   21.1370   11.4760   24.2530 C   0  0  0  0  0  0  0  0  0  0  0  0
   20.2130   12.2680   24.9030 C   0  0  0  0  0  0  0  0  0  0  0  0
   20.1100   13.5840   24.5840 F   0  0  0  0  0  0  0  0  0  0  0  0
   20.2380   12.4500   30.4470 C   0  0  0  0  0  0  0  0  0  0  0  0
   19.5090   12.5960   29.1720 N   0  0  0  0  0  0  0  0  0  0  0  0
   18.3230   11.8890   28.8770 C   0  0  0  0  0  0  0  0  0  0  0  0
   17.8260   11.1730   29.9340 N   0  0  0  0  0  0  0  0  0  0  0  0
   17.7300   11.9220   27.7240 N   0  0  0  0  0  0  0  0  0  0  0  0
   18.3190   12.6110   26.5770 C   0  0  0  0  0  0  0  0  0  0  0  0
   17.1230   12.8000   25.6390 C   0  0  0  0  0  0  0  0  0  0  0  0
   18.7850   13.9910   26.9840 C   0  0  0  0  0  0  0  0  0  0  0  0
   20.0870   13.8840   28.1860 S   0  0  0  0  0  0  0  0  0  0  0  0
   20.0180   15.0970   28.9800 O   0  0  0  0  0  0  0  0  0  0  0  0
   21.2900   13.3650   27.6150 O   0  0  0  0  0  0  0  0  0  0  0  0
   17.0010   10.6470   29.8270 H   0  0  0  0  0  0  0  0  0  0  0  0
   18.2930   11.1860   30.8000 H   0  0  0  0  0  0  0  0  0  0  0  0
   20.5250    8.2800   25.9860 N   0  0  0  0  0  0  0  0  0  0  0  0
   19.7290    7.2230   25.5820 C   0  0  0  0  0  0  0  0  0  0  0  0
   18.7350    7.3210   24.8740 O   0  0  0  0  0  0  0  0  0  0  0  0
   21.2230    8.0640   26.6460 H   0  0  0  0  0  0  0  0  0  0  0  0
   20.1740    5.8840   26.0380 C   0  0  0  0  0  0  0  0  0  0  0  0
   20.0140    5.5160   27.3620 C   0  0  0  0  0  0  0  0  0  0  0  0
   20.4490    4.2560   27.7330 C   0  0  0  0  0  0  0  0  0  0  0  0
   21.0140    3.4190   26.7910 C   0  0  0  0  0  0  0  0  0  0  0  0
   21.4600    2.1900   27.1060 F   0  0  0  0  0  0  0  0  0  0  0  0
   21.1360    3.8770   25.4990 C   0  0  0  0  0  0  0  0  0  0  0  0
   20.7290    5.0960   25.1100 N   0  0  0  0  0  0  0  0  0  0  0  0
  8  9  1  0
  9 10  1  0
 10 11  1  0
 10 12  2  0
 12 13  1  0
 13 14  1  0
 13  1  1  0
  1  2  2  0
  2  3  1  0
  3 21  1  0
 21 22  1  0
 22 23  2  0
 22 25  1  0
 25 26  2  0
 26 27  1  0
 27 28  2  0
 28 29  1  0
 28 30  1  0
 30 31  2  0
  3  4  2  0
  4  5  1  0
  5  6  2  0
  6  7  1  0
 13 15  1  0
 15 16  1  0
 16 17  2  0
 16 18  2  0
 16  9  1  0
  6  1  1  0
 31 25  1  0
 11 19  1  0
 11 20  1  0
 21 24  1  0
M  END
> <meeko>
{"is_sidechain": false}

> <source_group>
BACE1-401 observed AD isoform

> <source_system>
BACE1_verubecestat_401

> <source_run>
alternate_401_seed4409_ex32

> <source_seed>
4409

> <vina_pose_rank>
4

> <vina_affinity_kcal_mol>
-8.9719999999999995

> <vina_rmsd_to_crystal_angstrom>
8.3275000000000006

> <minimizedAffinity>
-8.45056

> <CNNscore>
0.1554829180

> <CNNaffinity>
4.8888626099

> <CNN_VS>
0.7601346374

> <CNNaffinity_variance>
0.8002235889

$$$$
BACE1_verubecestat_401__alternate_401_seed4409_ex32__pose05


 31 33  0  0  0  0  0  0  0  0999 V2000
   16.5990    7.5870   21.5050 C   0  0  0  0  0  0  0  0  0  0  0  0
   17.4410    8.4740   22.1730 C   0  0  0  0  0  0  0  0  0  0  0  0
   16.9630    9.5560   22.8770 C   0  0  0  0  0  0  0  0  0  0  0  0
   15.5980    9.8150   22.9270 C   0  0  0  0  0  0  0  0  0  0  0  0
   14.7470    8.9420   22.2730 C   0  0  0  0  0  0  0  0  0  0  0  0
   15.2390    7.8430   21.5970 C   0  0  0  0  0  0  0  0  0  0  0  0
   14.3800    6.9860   20.9880 F   0  0  0  0  0  0  0  0  0  0  0  0
   19.4200    4.8280   24.0700 C   0  0  0  0  0  0  0  0  0  0  0  0
   18.6690    5.2560   22.8730 N   0  0  0  0  0  0  0  0  0  0  0  0
   19.2780    5.8930   21.7690 C   0  0  0  0  0  0  0  0  0  0  0  0
   20.6450    5.9420   21.8410 N   0  0  0  0  0  0  0  0  0  0  0  0
   18.6200    6.3720   20.7590 N   0  0  0  0  0  0  0  0  0  0  0  0
   17.1590    6.3990   20.7380 C   0  0  0  0  0  0  0  0  0  0  0  0
   16.8400    6.5760   19.2510 C   0  0  0  0  0  0  0  0  0  0  0  0
   16.6080    5.0520   21.1510 C   0  0  0  0  0  0  0  0  0  0  0  0
   17.0460    4.6850   22.8320 S   0  0  0  0  0  0  0  0  0  0  0  0
   17.0960    3.2380   22.9400 O   0  0  0  0  0  0  0  0  0  0  0  0
   16.3600    5.5360   23.7540 O   0  0  0  0  0  0  0  0  0  0  0  0
   21.1600    6.3660   21.1170 H   0  0  0  0  0  0  0  0  0  0  0  0
   21.1120    5.5520   22.6150 H   0  0  0  0  0  0  0  0  0  0  0  0
   17.9160   10.3710   23.5000 N   0  0  0  0  0  0  0  0  0  0  0  0
   17.8360   10.9960   24.7320 C   0  0  0  0  0  0  0  0  0  0  0  0
   16.8360   11.0380   25.4360 O   0  0  0  0  0  0  0  0  0  0  0  0
   18.7500   10.5180   22.9970 H   0  0  0  0  0  0  0  0  0  0  0  0
   19.0950   11.6190   25.2090 C   0  0  0  0  0  0  0  0  0  0  0  0
   19.7430   12.5560   24.4230 C   0  0  0  0  0  0  0  0  0  0  0  0
   20.9140   13.1040   24.9160 C   0  0  0  0  0  0  0  0  0  0  0  0
   21.3900   12.7110   26.1520 C   0  0  0  0  0  0  0  0  0  0  0  0
   22.5270   13.2080   26.6680 F   0  0  0  0  0  0  0  0  0  0  0  0
   20.6780   11.7680   26.8570 C   0  0  0  0  0  0  0  0  0  0  0  0
   19.5410   11.2140   26.4020 N   0  0  0  0  0  0  0  0  0  0  0  0
  8  9  1  0
  9 10  1  0
 10 11  1  0
 10 12  2  0
 12 13  1  0
 13 14  1  0
 13  1  1  0
  1  2  2  0
  2  3  1  0
  3 21  1  0
 21 22  1  0
 22 23  2  0
 22 25  1  0
 25 26  2  0
 26 27  1  0
 27 28  2  0
 28 29  1  0
 28 30  1  0
 30 31  2  0
  3  4  2  0
  4  5  1  0
  5  6  2  0
  6  7  1  0
 13 15  1  0
 15 16  1  0
 16 17  2  0
 16 18  2  0
 16  9  1  0
  6  1  1  0
 31 25  1  0
 11 19  1  0
 11 20  1  0
 21 24  1  0
M  END
> <meeko>
{"is_sidechain": false}

> <source_group>
BACE1-401 observed AD isoform

> <source_system>
BACE1_verubecestat_401

> <source_run>
alternate_401_seed4409_ex32

> <source_seed>
4409

> <vina_pose_rank>
5

> <vina_affinity_kcal_mol>
-8.7319999999999993

> <vina_rmsd_to_crystal_angstrom>
8.8829999999999991

> <minimizedAffinity>
-8.27679

> <CNNscore>
0.1376964748

> <CNNaffinity>
4.8986754417

> <CNN_VS>
0.6745303273

> <CNNaffinity_variance>
1.1396657228

$$$$
BACE1_verubecestat_401__alternate_401_seed4409_ex32__pose06


 31 33  0  0  0  0  0  0  0  0999 V2000
   18.7600    7.4140   22.4370 C   0  0  0  0  0  0  0  0  0  0  0  0
   18.0840    6.6460   21.4910 C   0  0  0  0  0  0  0  0  0  0  0  0
   16.7750    6.8920   21.1420 C   0  0  0  0  0  0  0  0  0  0  0  0
   16.0660    7.9200   21.7500 C   0  0  0  0  0  0  0  0  0  0  0  0
   16.7220    8.6950   22.6900 C   0  0  0  0  0  0  0  0  0  0  0  0
   18.0450    8.4570   23.0070 C   0  0  0  0  0  0  0  0  0  0  0  0
   18.6750    9.2510   23.9110 F   0  0  0  0  0  0  0  0  0  0  0  0
   19.2920    5.4160   26.6650 C   0  0  0  0  0  0  0  0  0  0  0  0
   19.7210    5.9520   25.3580 N   0  0  0  0  0  0  0  0  0  0  0  0
   20.3160    7.2240   25.2050 C   0  0  0  0  0  0  0  0  0  0  0  0
   20.5980    7.8510   26.3890 N   0  0  0  0  0  0  0  0  0  0  0  0
   20.5990    7.7550   24.0560 N   0  0  0  0  0  0  0  0  0  0  0  0
   20.2070    7.1190   22.7990 C   0  0  0  0  0  0  0  0  0  0  0  0
   21.1210    7.7960   21.7730 C   0  0  0  0  0  0  0  0  0  0  0  0
   20.5760    5.6530   22.8220 C   0  0  0  0  0  0  0  0  0  0  0  0
   19.6670    4.7970   24.0830 S   0  0  0  0  0  0  0  0  0  0  0  0
   20.4850    3.6690   24.4900 O   0  0  0  0  0  0  0  0  0  0  0  0
   18.2770    4.7070   23.7620 O   0  0  0  0  0  0  0  0  0  0  0  0
   21.0150    8.7430   26.3870 H   0  0  0  0  0  0  0  0  0  0  0  0
   20.3850    7.4100   27.2440 H   0  0  0  0  0  0  0  0  0  0  0  0
   16.2120    6.0440   20.1790 N   0  0  0  0  0  0  0  0  0  0  0  0
   14.8900    5.6620   20.0410 C   0  0  0  0  0  0  0  0  0  0  0  0
   13.9970    5.9130   20.8400 O   0  0  0  0  0  0  0  0  0  0  0  0
   16.8380    5.6720   19.5160 H   0  0  0  0  0  0  0  0  0  0  0  0
   14.5700    4.9240   18.7950 C   0  0  0  0  0  0  0  0  0  0  0  0
   13.8060    5.5270   17.8110 C   0  0  0  0  0  0  0  0  0  0  0  0
   13.5370    4.7910   16.6700 C   0  0  0  0  0  0  0  0  0  0  0  0
   14.0300    3.5070   16.5470 C   0  0  0  0  0  0  0  0  0  0  0  0
   13.7870    2.7510   15.4630 F   0  0  0  0  0  0  0  0  0  0  0  0
   14.7760    2.9910   17.5830 C   0  0  0  0  0  0  0  0  0  0  0  0
   15.0490    3.6790   18.7050 N   0  0  0  0  0  0  0  0  0  0  0  0
  8  9  1  0
  9 10  1  0
 10 11  1  0
 10 12  2  0
 12 13  1  0
 13 14  1  0
 13  1  1  0
  1  2  2  0
  2  3  1  0
  3 21  1  0
 21 22  1  0
 22 23  2  0
 22 25  1  0
 25 26  2  0
 26 27  1  0
 27 28  2  0
 28 29  1  0
 28 30  1  0
 30 31  2  0
  3  4  2  0
  4  5  1  0
  5  6  2  0
  6  7  1  0
 13 15  1  0
 15 16  1  0
 16 17  2  0
 16 18  2  0
 16  9  1  0
  6  1  1  0
 31 25  1  0
 11 19  1  0
 11 20  1  0
 21 24  1  0
M  END
> <meeko>
{"is_sidechain": false}

> <source_group>
BACE1-401 observed AD isoform

> <source_system>
BACE1_verubecestat_401

> <source_run>
alternate_401_seed4409_ex32

> <source_seed>
4409

> <vina_pose_rank>
6

> <vina_affinity_kcal_mol>
-8.6549999999999994

> <vina_rmsd_to_crystal_angstrom>
11.161099999999999

> <minimizedAffinity>
-8.89389

> <CNNscore>
0.4360772669

> <CNNaffinity>
5.9041609764

> <CNN_VS>
2.5746703148

> <CNNaffinity_variance>
0.3523240387

$$$$
BACE1_verubecestat_401__alternate_401_seed4409_ex32__pose07


 31 33  0  0  0  0  0  0  0  0999 V2000
   24.1480   11.4630   20.5930 C   0  0  0  0  0  0  0  0  0  0  0  0
   23.4170   11.4490   21.7800 C   0  0  0  0  0  0  0  0  0  0  0  0
   23.0510   10.2790   22.4060 C   0  0  0  0  0  0  0  0  0  0  0  0
   23.3860    9.0500   21.8510 C   0  0  0  0  0  0  0  0  0  0  0  0
   24.1140    9.0450   20.6740 C   0  0  0  0  0  0  0  0  0  0  0  0
   24.5020   10.2270   20.0750 C   0  0  0  0  0  0  0  0  0  0  0  0
   25.2410   10.1950   18.9360 F   0  0  0  0  0  0  0  0  0  0  0  0
   27.3160   13.9540   23.0240 C   0  0  0  0  0  0  0  0  0  0  0  0
   26.4160   13.6430   21.8960 N   0  0  0  0  0  0  0  0  0  0  0  0
   25.1570   14.2610   21.7220 C   0  0  0  0  0  0  0  0  0  0  0  0
   24.9120   15.2800   22.6040 N   0  0  0  0  0  0  0  0  0  0  0  0
   24.3080   13.9230   20.8010 N   0  0  0  0  0  0  0  0  0  0  0  0
   24.5400   12.7730   19.9280 C   0  0  0  0  0  0  0  0  0  0  0  0
   23.5900   13.0360   18.7560 C   0  0  0  0  0  0  0  0  0  0  0  0
   25.9470   12.8160   19.3760 C   0  0  0  0  0  0  0  0  0  0  0  0
   27.1380   12.6590   20.6820 S   0  0  0  0  0  0  0  0  0  0  0  0
   28.3380   13.3420   20.2330 O   0  0  0  0  0  0  0  0  0  0  0  0
   27.1260   11.3480   21.2530 O   0  0  0  0  0  0  0  0  0  0  0  0
   24.0600   15.7720   22.5620 H   0  0  0  0  0  0  0  0  0  0  0  0
   25.5870   15.5200   23.2780 H   0  0  0  0  0  0  0  0  0  0  0  0
   22.3160   10.4040   23.5920 N   0  0  0  0  0  0  0  0  0  0  0  0
   22.6050   11.1780   24.7010 C   0  0  0  0  0  0  0  0  0  0  0  0
   23.6460   11.7970   24.8770 O   0  0  0  0  0  0  0  0  0  0  0  0
   21.4880    9.8740   23.6420 H   0  0  0  0  0  0  0  0  0  0  0  0
   21.5240   11.2630   25.7140 C   0  0  0  0  0  0  0  0  0  0  0  0
   20.2060   11.0730   25.3350 C   0  0  0  0  0  0  0  0  0  0  0  0
   19.2390   11.1640   26.3200 C   0  0  0  0  0  0  0  0  0  0  0  0
   19.6070   11.4330   27.6240 C   0  0  0  0  0  0  0  0  0  0  0  0
   18.7020   11.5400   28.6110 F   0  0  0  0  0  0  0  0  0  0  0  0
   20.9430   11.6120   27.9010 C   0  0  0  0  0  0  0  0  0  0  0  0
   21.9050   11.5350   26.9660 N   0  0  0  0  0  0  0  0  0  0  0  0
  8  9  1  0
  9 10  1  0
 10 11  1  0
 10 12  2  0
 12 13  1  0
 13 14  1  0
 13  1  1  0
  1  2  2  0
  2  3  1  0
  3 21  1  0
 21 22  1  0
 22 23  2  0
 22 25  1  0
 25 26  2  0
 26 27  1  0
 27 28  2  0
 28 29  1  0
 28 30  1  0
 30 31  2  0
  3  4  2  0
  4  5  1  0
  5  6  2  0
  6  7  1  0
 13 15  1  0
 15 16  1  0
 16 17  2  0
 16 18  2  0
 16  9  1  0
  6  1  1  0
 31 25  1  0
 11 19  1  0
 11 20  1  0
 21 24  1  0
M  END
> <meeko>
{"is_sidechain": false}

> <source_group>
BACE1-401 observed AD isoform

> <source_system>
BACE1_verubecestat_401

> <source_run>
alternate_401_seed4409_ex32

> <source_seed>
4409

> <vina_pose_rank>
7

> <vina_affinity_kcal_mol>
-8.4220000000000006

> <vina_rmsd_to_crystal_angstrom>
7.1726999999999999

> <minimizedAffinity>
-8.02658

> <CNNscore>
0.1599309891

> <CNNaffinity>
5.0136876106

> <CNN_VS>
0.8018440008

> <CNNaffinity_variance>
0.4612496793

$$$$
BACE1_verubecestat_401__alternate_401_seed4409_ex32__pose08


 31 33  0  0  0  0  0  0  0  0999 V2000
   24.9320   11.2680   19.8550 C   0  0  0  0  0  0  0  0  0  0  0  0
   24.1280   10.5810   20.7640 C   0  0  0  0  0  0  0  0  0  0  0  0
   24.2800    9.2360   21.0100 C   0  0  0  0  0  0  0  0  0  0  0  0
   25.2430    8.5000   20.3310 C   0  0  0  0  0  0  0  0  0  0  0  0
   26.0530    9.1660   19.4280 C   0  0  0  0  0  0  0  0  0  0  0  0
   25.9110   10.5230   19.2150 C   0  0  0  0  0  0  0  0  0  0  0  0
   26.7370   11.1590   18.3450 F   0  0  0  0  0  0  0  0  0  0  0  0
   25.6440   13.9350   23.6670 C   0  0  0  0  0  0  0  0  0  0  0  0
   25.3450   13.6540   22.2490 N   0  0  0  0  0  0  0  0  0  0  0  0
   24.0370   13.6880   21.7160 C   0  0  0  0  0  0  0  0  0  0  0  0
   23.0920   14.1510   22.5920 N   0  0  0  0  0  0  0  0  0  0  0  0
   23.7430   13.3390   20.5020 N   0  0  0  0  0  0  0  0  0  0  0  0
   24.7420   12.7560   19.6070 C   0  0  0  0  0  0  0  0  0  0  0  0
   24.1170   12.9510   18.2230 C   0  0  0  0  0  0  0  0  0  0  0  0
   26.0110   13.5790   19.6400 C   0  0  0  0  0  0  0  0  0  0  0  0
   26.7460   13.5340   21.2560 S   0  0  0  0  0  0  0  0  0  0  0  0
   27.4880   14.7720   21.4080 O   0  0  0  0  0  0  0  0  0  0  0  0
   27.2710   12.2390   21.5600 O   0  0  0  0  0  0  0  0  0  0  0  0
   22.1500   14.2120   22.3130 H   0  0  0  0  0  0  0  0  0  0  0  0
   23.3550   14.4240   23.5010 H   0  0  0  0  0  0  0  0  0  0  0  0
   23.4050    8.6660   21.9450 N   0  0  0  0  0  0  0  0  0  0  0  0
   22.6290    9.3070   22.8940 C   0  0  0  0  0  0  0  0  0  0  0  0
   22.6830   10.5010   23.1580 O   0  0  0  0  0  0  0  0  0  0  0  0
   23.3340    7.6840   21.9230 H   0  0  0  0  0  0  0  0  0  0  0  0
   21.6460    8.4460   23.5950 C   0  0  0  0  0  0  0  0  0  0  0  0
   21.1170    7.3390   22.9550 C   0  0  0  0  0  0  0  0  0  0  0  0
   20.2030    6.5720   23.6550 C   0  0  0  0  0  0  0  0  0  0  0  0
   19.8550    6.9230   24.9450 C   0  0  0  0  0  0  0  0  0  0  0  0
   18.9650    6.2140   25.6610 F   0  0  0  0  0  0  0  0  0  0  0  0
   20.4310    8.0460   25.4950 C   0  0  0  0  0  0  0  0  0  0  0  0
   21.3170    8.8130   24.8380 N   0  0  0  0  0  0  0  0  0  0  0  0
  8  9  1  0
  9 10  1  0
 10 11  1  0
 10 12  2  0
 12 13  1  0
 13 14  1  0
 13  1  1  0
  1  2  2  0
  2  3  1  0
  3 21  1  0
 21 22  1  0
 22 23  2  0
 22 25  1  0
 25 26  2  0
 26 27  1  0
 27 28  2  0
 28 29  1  0
 28 30  1  0
 30 31  2  0
  3  4  2  0
  4  5  1  0
  5  6  2  0
  6  7  1  0
 13 15  1  0
 15 16  1  0
 16 17  2  0
 16 18  2  0
 16  9  1  0
  6  1  1  0
 31 25  1  0
 11 19  1  0
 11 20  1  0
 21 24  1  0
M  END
> <meeko>
{"is_sidechain": false}

> <source_group>
BACE1-401 observed AD isoform

> <source_system>
BACE1_verubecestat_401

> <source_run>
alternate_401_seed4409_ex32

> <source_seed>
4409

> <vina_pose_rank>
8

> <vina_affinity_kcal_mol>
-8.3599999999999994

> <vina_rmsd_to_crystal_angstrom>
6.5603999999999996

> <minimizedAffinity>
-8.09649

> <CNNscore>
0.2919840515

> <CNNaffinity>
5.3873076439

> <CNN_VS>
1.5730079412

> <CNNaffinity_variance>
0.1265666336

$$$$
BACE1_verubecestat_401__alternate_401_seed4409_ex32__pose09


 31 33  0  0  0  0  0  0  0  0999 V2000
   19.5130   11.1380   25.0280 C   0  0  0  0  0  0  0  0  0  0  0  0
   19.9620    9.8200   25.0930 C   0  0  0  0  0  0  0  0  0  0  0  0
   19.1820    8.7560   24.7010 C   0  0  0  0  0  0  0  0  0  0  0  0
   17.8880    8.9650   24.2400 C   0  0  0  0  0  0  0  0  0  0  0  0
   17.4260   10.2670   24.1660 C   0  0  0  0  0  0  0  0  0  0  0  0
   18.2320   11.3270   24.5330 C   0  0  0  0  0  0  0  0  0  0  0  0
   17.7660   12.5980   24.4230 F   0  0  0  0  0  0  0  0  0  0  0  0
   19.0200   12.3010   29.5620 C   0  0  0  0  0  0  0  0  0  0  0  0
   19.5850   12.3740   28.2000 N   0  0  0  0  0  0  0  0  0  0  0  0
   19.2260   13.3760   27.2700 C   0  0  0  0  0  0  0  0  0  0  0  0
   18.4270   14.3570   27.7930 N   0  0  0  0  0  0  0  0  0  0  0  0
   19.6280   13.3930   26.0370 N   0  0  0  0  0  0  0  0  0  0  0  0
   20.4010   12.2920   25.4660 C   0  0  0  0  0  0  0  0  0  0  0  0
   21.0350   12.9260   24.2240 C   0  0  0  0  0  0  0  0  0  0  0  0
   21.5320   11.9140   26.3960 C   0  0  0  0  0  0  0  0  0  0  0  0
   20.8970   11.2930   27.9340 S   0  0  0  0  0  0  0  0  0  0  0  0
   21.9020   11.5800   28.9420 O   0  0  0  0  0  0  0  0  0  0  0  0
   20.2650   10.0220   27.7680 O   0  0  0  0  0  0  0  0  0  0  0  0
   18.1230   15.1000   27.2220 H   0  0  0  0  0  0  0  0  0  0  0  0
   18.1560   14.3210   28.7390 H   0  0  0  0  0  0  0  0  0  0  0  0
   19.7520    7.4820   24.8190 N   0  0  0  0  0  0  0  0  0  0  0  0
   20.6360    6.8560   23.9590 C   0  0  0  0  0  0  0  0  0  0  0  0
   20.9710    7.2810   22.8610 O   0  0  0  0  0  0  0  0  0  0  0  0
   19.4900    6.9660   25.6160 H   0  0  0  0  0  0  0  0  0  0  0  0
   21.2250    5.5920   24.4650 C   0  0  0  0  0  0  0  0  0  0  0  0
   20.5380    4.8360   25.3990 C   0  0  0  0  0  0  0  0  0  0  0  0
   21.1350    3.6670   25.8390 C   0  0  0  0  0  0  0  0  0  0  0  0
   22.3690    3.2950   25.3410 C   0  0  0  0  0  0  0  0  0  0  0  0
   22.9910    2.1740   25.7450 F   0  0  0  0  0  0  0  0  0  0  0  0
   22.9760    4.1170   24.4190 C   0  0  0  0  0  0  0  0  0  0  0  0
   22.4250    5.2590   23.9780 N   0  0  0  0  0  0  0  0  0  0  0  0
  8  9  1  0
  9 10  1  0
 10 11  1  0
 10 12  2  0
 12 13  1  0
 13 14  1  0
 13  1  1  0
  1  2  2  0
  2  3  1  0
  3 21  1  0
 21 22  1  0
 22 23  2  0
 22 25  1  0
 25 26  2  0
 26 27  1  0
 27 28  2  0
 28 29  1  0
 28 30  1  0
 30 31  2  0
  3  4  2  0
  4  5  1  0
  5  6  2  0
  6  7  1  0
 13 15  1  0
 15 16  1  0
 16 17  2  0
 16 18  2  0
 16  9  1  0
  6  1  1  0
 31 25  1  0
 11 19  1  0
 11 20  1  0
 21 24  1  0
M  END
> <meeko>
{"is_sidechain": false}

> <source_group>
BACE1-401 observed AD isoform

> <source_system>
BACE1_verubecestat_401

> <source_run>
alternate_401_seed4409_ex32

> <source_seed>
4409

> <vina_pose_rank>
9

> <vina_affinity_kcal_mol>
-8.3520000000000003

> <vina_rmsd_to_crystal_angstrom>
7.6525999999999996

> <minimizedAffinity>
-8.35324

> <CNNscore>
0.0489243716

> <CNNaffinity>
4.1165614128

> <CNN_VS>
0.2014001757

> <CNNaffinity_variance>
1.0674270391

$$$$
BACE1_verubecestat_401__alternate_401_seed4409_ex32__pose10


 31 33  0  0  0  0  0  0  0  0999 V2000
   18.5670    7.9340   23.1850 C   0  0  0  0  0  0  0  0  0  0  0  0
   19.5140    8.9070   23.5020 C   0  0  0  0  0  0  0  0  0  0  0  0
   19.2170    9.9940   24.2920 C   0  0  0  0  0  0  0  0  0  0  0  0
   17.9320   10.1720   24.7890 C   0  0  0  0  0  0  0  0  0  0  0  0
   16.9790    9.2140   24.4870 C   0  0  0  0  0  0  0  0  0  0  0  0
   17.3010    8.1120   23.7200 C   0  0  0  0  0  0  0  0  0  0  0  0
   16.3550    7.1720   23.4620 F   0  0  0  0  0  0  0  0  0  0  0  0
   22.2230    5.4420   24.7890 C   0  0  0  0  0  0  0  0  0  0  0  0
   21.1060    5.7760   23.8830 N   0  0  0  0  0  0  0  0  0  0  0  0
   21.2920    6.3920   22.6250 C   0  0  0  0  0  0  0  0  0  0  0  0
   22.6050    6.5130   22.2550 N   0  0  0  0  0  0  0  0  0  0  0  0
   20.3190    6.7900   21.8660 N   0  0  0  0  0  0  0  0  0  0  0  0
   18.9280    6.7420   22.3120 C   0  0  0  0  0  0  0  0  0  0  0  0
   18.1430    6.8350   21.0000 C   0  0  0  0  0  0  0  0  0  0  0  0
   18.6220    5.3900   22.9160 C   0  0  0  0  0  0  0  0  0  0  0  0
   19.5920    5.1220   24.3780 S   0  0  0  0  0  0  0  0  0  0  0  0
   19.7650    3.6860   24.5040 O   0  0  0  0  0  0  0  0  0  0  0  0
   19.1830    5.9790   25.4470 O   0  0  0  0  0  0  0  0  0  0  0  0
   22.8370    6.9290   21.3940 H   0  0  0  0  0  0  0  0  0  0  0  0
   23.3170    6.1830   22.8500 H   0  0  0  0  0  0  0  0  0  0  0  0
   20.2590   10.8990   24.5330 N   0  0  0  0  0  0  0  0  0  0  0  0
   20.9950   11.0700   25.6910 C   0  0  0  0  0  0  0  0  0  0  0  0
   20.7590   10.5260   26.7620 O   0  0  0  0  0  0  0  0  0  0  0  0
   20.4980   11.4880   23.7810 H   0  0  0  0  0  0  0  0  0  0  0  0
   22.1730   11.9630   25.5670 C   0  0  0  0  0  0  0  0  0  0  0  0
   22.9800   11.8900   24.4460 C   0  0  0  0  0  0  0  0  0  0  0  0
   24.0670   12.7450   24.3830 C   0  0  0  0  0  0  0  0  0  0  0  0
   24.3060   13.6290   25.4170 C   0  0  0  0  0  0  0  0  0  0  0  0
   25.3530   14.4720   25.4050 F   0  0  0  0  0  0  0  0  0  0  0  0
   23.4490   13.6230   26.4940 C   0  0  0  0  0  0  0  0  0  0  0  0
   22.3910   12.8010   26.5860 N   0  0  0  0  0  0  0  0  0  0  0  0
  8  9  1  0
  9 10  1  0
 10 11  1  0
 10 12  2  0
 12 13  1  0
 13 14  1  0
 13  1  1  0
  1  2  2  0
  2  3  1  0
  3 21  1  0
 21 22  1  0
 22 23  2  0
 22 25  1  0
 25 26  2  0
 26 27  1  0
 27 28  2  0
 28 29  1  0
 28 30  1  0
 30 31  2  0
  3  4  2  0
  4  5  1  0
  5  6  2  0
  6  7  1  0
 13 15  1  0
 15 16  1  0
 16 17  2  0
 16 18  2  0
 16  9  1  0
  6  1  1  0
 31 25  1  0
 11 19  1  0
 11 20  1  0
 21 24  1  0
M  END
> <meeko>
{"is_sidechain": false}

> <source_group>
BACE1-401 observed AD isoform

> <source_system>
BACE1_verubecestat_401

> <source_run>
alternate_401_seed4409_ex32

> <source_seed>
4409

> <vina_pose_rank>
10

> <vina_affinity_kcal_mol>
-8.2970000000000006

> <vina_rmsd_to_crystal_angstrom>
7.2451999999999996

> <minimizedAffinity>
-7.57379

> <CNNscore>
0.0231074207

> <CNNaffinity>
4.3273959160

> <CNN_VS>
0.0999949574

> <CNNaffinity_variance>
0.6214444041

$$$$
BACE1_verubecestat_401__alternate_401_seed4409_ex32__pose11


 31 33  0  0  0  0  0  0  0  0999 V2000
   25.3270   10.9350   19.6660 C   0  0  0  0  0  0  0  0  0  0  0  0
   25.9680    9.8580   20.2770 C   0  0  0  0  0  0  0  0  0  0  0  0
   26.1160    8.6400   19.6540 C   0  0  0  0  0  0  0  0  0  0  0  0
   25.6010    8.4330   18.3810 C   0  0  0  0  0  0  0  0  0  0  0  0
   24.9640    9.4920   17.7570 C   0  0  0  0  0  0  0  0  0  0  0  0
   24.8520   10.7190   18.3810 C   0  0  0  0  0  0  0  0  0  0  0  0
   24.2490   11.7500   17.7360 F   0  0  0  0  0  0  0  0  0  0  0  0
   29.4260   12.8500   20.9610 C   0  0  0  0  0  0  0  0  0  0  0  0
   27.9610   12.7720   20.7960 N   0  0  0  0  0  0  0  0  0  0  0  0
   27.0840   12.4370   21.8510 C   0  0  0  0  0  0  0  0  0  0  0  0
   27.6960   12.3400   23.0720 N   0  0  0  0  0  0  0  0  0  0  0  0
   25.8080   12.2580   21.7000 N   0  0  0  0  0  0  0  0  0  0  0  0
   25.1830   12.2710   20.3780 C   0  0  0  0  0  0  0  0  0  0  0  0
   23.7040   12.5010   20.7020 C   0  0  0  0  0  0  0  0  0  0  0  0
   25.6560   13.4720   19.5910 C   0  0  0  0  0  0  0  0  0  0  0  0
   27.4010   13.3710   19.2820 S   0  0  0  0  0  0  0  0  0  0  0  0
   27.8790   14.7360   19.1560 O   0  0  0  0  0  0  0  0  0  0  0  0
   27.7140   12.3220   18.3630 O   0  0  0  0  0  0  0  0  0  0  0  0
   27.1670   12.1100   23.8710 H   0  0  0  0  0  0  0  0  0  0  0  0
   28.6640   12.5000   23.1530 H   0  0  0  0  0  0  0  0  0  0  0  0
   26.7780    7.6410   20.3800 N   0  0  0  0  0  0  0  0  0  0  0  0
   26.2330    6.5360   21.0110 C   0  0  0  0  0  0  0  0  0  0  0  0
   25.0360    6.3220   21.1460 O   0  0  0  0  0  0  0  0  0  0  0  0
   27.7550    7.7360   20.4490 H   0  0  0  0  0  0  0  0  0  0  0  0
   27.2160    5.5470   21.5170 C   0  0  0  0  0  0  0  0  0  0  0  0
   26.7760    4.4010   22.1550 C   0  0  0  0  0  0  0  0  0  0  0  0
   27.7360    3.5130   22.6090 C   0  0  0  0  0  0  0  0  0  0  0  0
   29.0750    3.7890   22.4130 C   0  0  0  0  0  0  0  0  0  0  0  0
   30.0430    2.9620   22.8440 F   0  0  0  0  0  0  0  0  0  0  0  0
   29.4140    4.9590   21.7720 C   0  0  0  0  0  0  0  0  0  0  0  0
   28.5060    5.8420   21.3260 N   0  0  0  0  0  0  0  0  0  0  0  0
  8  9  1  0
  9 10  1  0
 10 11  1  0
 10 12  2  0
 12 13  1  0
 13 14  1  0
 13  1  1  0
  1  2  2  0
  2  3  1  0
  3 21  1  0
 21 22  1  0
 22 23  2  0
 22 25  1  0
 25 26  2  0
 26 27  1  0
 27 28  2  0
 28 29  1  0
 28 30  1  0
 30 31  2  0
  3  4  2  0
  4  5  1  0
  5  6  2  0
  6  7  1  0
 13 15  1  0
 15 16  1  0
 16 17  2  0
 16 18  2  0
 16  9  1  0
  6  1  1  0
 31 25  1  0
 11 19  1  0
 11 20  1  0
 21 24  1  0
M  END
> <meeko>
{"is_sidechain": false}

> <source_group>
BACE1-401 observed AD isoform

> <source_system>
BACE1_verubecestat_401

> <source_run>
alternate_401_seed4409_ex32

> <source_seed>
4409

> <vina_pose_rank>
11

> <vina_affinity_kcal_mol>
-8.2840000000000007

> <vina_rmsd_to_crystal_angstrom>
5.2739000000000003

> <minimizedAffinity>
-7.60679

> <CNNscore>
0.1458329409

> <CNNaffinity>
4.8571200371

> <CNN_VS>
0.7083281279

> <CNNaffinity_variance>
0.4636846483

$$$$
BACE1_verubecestat_401__alternate_401_seed4409_ex32__pose12


 31 33  0  0  0  0  0  0  0  0999 V2000
   19.4400    7.5370   23.4750 C   0  0  0  0  0  0  0  0  0  0  0  0
   20.3920    8.5510   23.3890 C   0  0  0  0  0  0  0  0  0  0  0  0
   20.2890    9.7210   24.1070 C   0  0  0  0  0  0  0  0  0  0  0  0
   19.1990    9.9410   24.9400 C   0  0  0  0  0  0  0  0  0  0  0  0
   18.2460    8.9430   25.0410 C   0  0  0  0  0  0  0  0  0  0  0  0
   18.3790    7.7610   24.3390 C   0  0  0  0  0  0  0  0  0  0  0  0
   17.4450    6.7860   24.4780 F   0  0  0  0  0  0  0  0  0  0  0  0
   23.0130    4.8110   24.8740 C   0  0  0  0  0  0  0  0  0  0  0  0
   21.8340    5.1890   24.0710 N   0  0  0  0  0  0  0  0  0  0  0  0
   21.9270    5.6900   22.7530 C   0  0  0  0  0  0  0  0  0  0  0  0
   23.1930    5.6500   22.2320 N   0  0  0  0  0  0  0  0  0  0  0  0
   20.9130    6.1280   22.0730 N   0  0  0  0  0  0  0  0  0  0  0  0
   19.5850    6.2540   22.6710 C   0  0  0  0  0  0  0  0  0  0  0  0
   18.6640    6.3300   21.4500 C   0  0  0  0  0  0  0  0  0  0  0  0
   19.2280    4.9870   23.4170 C   0  0  0  0  0  0  0  0  0  0  0  0
   20.3340    4.7300   24.7810 S   0  0  0  0  0  0  0  0  0  0  0  0
   20.3870    3.2970   25.0080 O   0  0  0  0  0  0  0  0  0  0  0  0
   20.1340    5.7000   25.8130 O   0  0  0  0  0  0  0  0  0  0  0  0
   23.3600    5.9770   21.3190 H   0  0  0  0  0  0  0  0  0  0  0  0
   23.9360    5.2940   22.7710 H   0  0  0  0  0  0  0  0  0  0  0  0
   21.3120   10.6610   23.9270 N   0  0  0  0  0  0  0  0  0  0  0  0
   22.2540   11.0890   24.8450 C   0  0  0  0  0  0  0  0  0  0  0  0
   22.2610   10.7970   26.0340 O   0  0  0  0  0  0  0  0  0  0  0  0
   21.3680   11.0680   23.0320 H   0  0  0  0  0  0  0  0  0  0  0  0
   23.3380   11.9360   24.2920 C   0  0  0  0  0  0  0  0  0  0  0  0
   23.5240   12.0150   22.9230 C   0  0  0  0  0  0  0  0  0  0  0  0
   24.5510   12.8190   22.4620 C   0  0  0  0  0  0  0  0  0  0  0  0
   25.3430   13.5060   23.3620 C   0  0  0  0  0  0  0  0  0  0  0  0
   26.3580   14.2910   22.9610 F   0  0  0  0  0  0  0  0  0  0  0  0
   25.0840   13.3590   24.7050 C   0  0  0  0  0  0  0  0  0  0  0  0
   24.0980   12.5820   25.1830 N   0  0  0  0  0  0  0  0  0  0  0  0
  8  9  1  0
  9 10  1  0
 10 11  1  0
 10 12  2  0
 12 13  1  0
 13 14  1  0
 13  1  1  0
  1  2  2  0
  2  3  1  0
  3 21  1  0
 21 22  1  0
 22 23  2  0
 22 25  1  0
 25 26  2  0
 26 27  1  0
 27 28  2  0
 28 29  1  0
 28 30  1  0
 30 31  2  0
  3  4  2  0
  4  5  1  0
  5  6  2  0
  6  7  1  0
 13 15  1  0
 15 16  1  0
 16 17  2  0
 16 18  2  0
 16  9  1  0
  6  1  1  0
 31 25  1  0
 11 19  1  0
 11 20  1  0
 21 24  1  0
M  END
> <meeko>
{"is_sidechain": false}

> <source_group>
BACE1-401 observed AD isoform

> <source_system>
BACE1_verubecestat_401

> <source_run>
alternate_401_seed4409_ex32

> <source_seed>
4409

> <vina_pose_rank>
12

> <vina_affinity_kcal_mol>
-8.1799999999999997

> <vina_rmsd_to_crystal_angstrom>
6.7012

> <minimizedAffinity>
-7.64407

> <CNNscore>
0.0249109771

> <CNNaffinity>
4.2022037506

> <CNN_VS>
0.1046810001

> <CNNaffinity_variance>
0.7530856729

$$$$
BACE1_verubecestat_401__alternate_401_seed4409_ex32__pose13


 31 33  0  0  0  0  0  0  0  0999 V2000
   20.8310    6.6520   23.8900 C   0  0  0  0  0  0  0  0  0  0  0  0
   21.4070    7.7390   23.2350 C   0  0  0  0  0  0  0  0  0  0  0  0
   22.5110    7.6080   22.4230 C   0  0  0  0  0  0  0  0  0  0  0  0
   23.1100    6.3680   22.2450 C   0  0  0  0  0  0  0  0  0  0  0  0
   22.5490    5.2770   22.8840 C   0  0  0  0  0  0  0  0  0  0  0  0
   21.4230    5.4180   23.6700 C   0  0  0  0  0  0  0  0  0  0  0  0
   20.8740    4.3260   24.2640 F   0  0  0  0  0  0  0  0  0  0  0  0
   17.0610    8.3260   21.6240 C   0  0  0  0  0  0  0  0  0  0  0  0
   17.8270    7.8020   22.7720 N   0  0  0  0  0  0  0  0  0  0  0  0
   18.3390    8.6280   23.7970 C   0  0  0  0  0  0  0  0  0  0  0  0
   17.9330    9.9330   23.7140 N   0  0  0  0  0  0  0  0  0  0  0  0
   19.1050    8.2010   24.7530 N   0  0  0  0  0  0  0  0  0  0  0  0
   19.6090    6.8280   24.7780 C   0  0  0  0  0  0  0  0  0  0  0  0
   20.0290    6.6440   26.2390 C   0  0  0  0  0  0  0  0  0  0  0  0
   18.4800    5.8560   24.5160 C   0  0  0  0  0  0  0  0  0  0  0  0
   17.8230    6.0840   22.8830 S   0  0  0  0  0  0  0  0  0  0  0  0
   16.4350    5.6600   22.9320 O   0  0  0  0  0  0  0  0  0  0  0  0
   18.7530    5.6750   21.8780 O   0  0  0  0  0  0  0  0  0  0  0  0
   18.2380   10.5860   24.3850 H   0  0  0  0  0  0  0  0  0  0  0  0
   17.3370   10.2180   22.9850 H   0  0  0  0  0  0  0  0  0  0  0  0
   22.9930    8.7810   21.8260 N   0  0  0  0  0  0  0  0  0  0  0  0
   24.1890    8.9720   21.1560 C   0  0  0  0  0  0  0  0  0  0  0  0
   25.0970    8.1540   21.0890 O   0  0  0  0  0  0  0  0  0  0  0  0
   22.4060    9.5680   21.8910 H   0  0  0  0  0  0  0  0  0  0  0  0
   24.3190   10.2710   20.4520 C   0  0  0  0  0  0  0  0  0  0  0  0
   23.3620   10.6550   19.5290 C   0  0  0  0  0  0  0  0  0  0  0  0
   23.5340   11.8760   18.9000 C   0  0  0  0  0  0  0  0  0  0  0  0
   24.6300   12.6600   19.2070 C   0  0  0  0  0  0  0  0  0  0  0  0
   24.8440   13.8470   18.6160 F   0  0  0  0  0  0  0  0  0  0  0  0
   25.5300   12.1880   20.1350 C   0  0  0  0  0  0  0  0  0  0  0  0
   25.3930   11.0060   20.7580 N   0  0  0  0  0  0  0  0  0  0  0  0
  8  9  1  0
  9 10  1  0
 10 11  1  0
 10 12  2  0
 12 13  1  0
 13 14  1  0
 13  1  1  0
  1  2  2  0
  2  3  1  0
  3 21  1  0
 21 22  1  0
 22 23  2  0
 22 25  1  0
 25 26  2  0
 26 27  1  0
 27 28  2  0
 28 29  1  0
 28 30  1  0
 30 31  2  0
  3  4  2  0
  4  5  1  0
  5  6  2  0
  6  7  1  0
 13 15  1  0
 15 16  1  0
 16 17  2  0
 16 18  2  0
 16  9  1  0
  6  1  1  0
 31 25  1  0
 11 19  1  0
 11 20  1  0
 21 24  1  0
M  END
> <meeko>
{"is_sidechain": false}

> <source_group>
BACE1-401 observed AD isoform

> <source_system>
BACE1_verubecestat_401

> <source_run>
alternate_401_seed4409_ex32

> <source_seed>
4409

> <vina_pose_rank>
13

> <vina_affinity_kcal_mol>
-8.1649999999999991

> <vina_rmsd_to_crystal_angstrom>
6.3300000000000001

> <minimizedAffinity>
-7.88767

> <CNNscore>
0.3425288200

> <CNNaffinity>
5.1598610878

> <CNN_VS>
1.7674010992

> <CNNaffinity_variance>
0.3813195229

$$$$
BACE1_verubecestat_401__alternate_401_seed4409_ex32__pose14


 31 33  0  0  0  0  0  0  0  0999 V2000
   18.7230    7.0160   23.7820 C   0  0  0  0  0  0  0  0  0  0  0  0
   18.5480    6.4150   22.5360 C   0  0  0  0  0  0  0  0  0  0  0  0
   17.4850    6.7180   21.7160 C   0  0  0  0  0  0  0  0  0  0  0  0
   16.5220    7.6340   22.1210 C   0  0  0  0  0  0  0  0  0  0  0  0
   16.6820    8.2420   23.3540 C   0  0  0  0  0  0  0  0  0  0  0  0
   17.7710    7.9520   24.1520 C   0  0  0  0  0  0  0  0  0  0  0  0
   17.9200    8.5850   25.3440 F   0  0  0  0  0  0  0  0  0  0  0  0
   22.8260    8.7020   22.2100 C   0  0  0  0  0  0  0  0  0  0  0  0
   21.9200    7.9960   23.1370 N   0  0  0  0  0  0  0  0  0  0  0  0
   21.8200    6.5880   23.1940 C   0  0  0  0  0  0  0  0  0  0  0  0
   22.7460    5.9350   22.4260 N   0  0  0  0  0  0  0  0  0  0  0  0
   20.9540    5.9550   23.9230 N   0  0  0  0  0  0  0  0  0  0  0  0
   19.9110    6.6620   24.6640 C   0  0  0  0  0  0  0  0  0  0  0  0
   19.4650    5.6270   25.7000 C   0  0  0  0  0  0  0  0  0  0  0  0
   20.5110    7.8220   25.4260 C   0  0  0  0  0  0  0  0  0  0  0  0
   21.1870    9.0240   24.3090 S   0  0  0  0  0  0  0  0  0  0  0  0
   22.2590    9.6950   25.0220 O   0  0  0  0  0  0  0  0  0  0  0  0
   20.1620    9.7000   23.5770 O   0  0  0  0  0  0  0  0  0  0  0  0
   22.7570    4.9510   22.4000 H   0  0  0  0  0  0  0  0  0  0  0  0
   23.4010    6.4490   21.8990 H   0  0  0  0  0  0  0  0  0  0  0  0
   17.4250    6.0410   20.4910 N   0  0  0  0  0  0  0  0  0  0  0  0
   16.8750    4.8000   20.2230 C   0  0  0  0  0  0  0  0  0  0  0  0
   16.4560    4.0190   21.0670 O   0  0  0  0  0  0  0  0  0  0  0  0
   17.8240    6.5090   19.7220 H   0  0  0  0  0  0  0  0  0  0  0  0
   16.7770    4.4470   18.7860 C   0  0  0  0  0  0  0  0  0  0  0  0
   15.6570    4.8130   18.0600 C   0  0  0  0  0  0  0  0  0  0  0  0
   15.6170    4.4570   16.7230 C   0  0  0  0  0  0  0  0  0  0  0  0
   16.6740    3.7640   16.1640 C   0  0  0  0  0  0  0  0  0  0  0  0
   16.6750    3.3890   14.8740 F   0  0  0  0  0  0  0  0  0  0  0  0
   17.7420    3.4400   16.9700 C   0  0  0  0  0  0  0  0  0  0  0  0
   17.8060    3.7670   18.2710 N   0  0  0  0  0  0  0  0  0  0  0  0
  8  9  1  0
  9 10  1  0
 10 11  1  0
 10 12  2  0
 12 13  1  0
 13 14  1  0
 13  1  1  0
  1  2  2  0
  2  3  1  0
  3 21  1  0
 21 22  1  0
 22 23  2  0
 22 25  1  0
 25 26  2  0
 26 27  1  0
 27 28  2  0
 28 29  1  0
 28 30  1  0
 30 31  2  0
  3  4  2  0
  4  5  1  0
  5  6  2  0
  6  7  1  0
 13 15  1  0
 15 16  1  0
 16 17  2  0
 16 18  2  0
 16  9  1  0
  6  1  1  0
 31 25  1  0
 11 19  1  0
 11 20  1  0
 21 24  1  0
M  END
> <meeko>
{"is_sidechain": false}

> <source_group>
BACE1-401 observed AD isoform

> <source_system>
BACE1_verubecestat_401

> <source_run>
alternate_401_seed4409_ex32

> <source_seed>
4409

> <vina_pose_rank>
14

> <vina_affinity_kcal_mol>
-8.1590000000000007

> <vina_rmsd_to_crystal_angstrom>
9.9094999999999995

> <minimizedAffinity>
-7.77568

> <CNNscore>
0.1494461149

> <CNNaffinity>
5.1809668541

> <CNN_VS>
0.7742753625

> <CNNaffinity_variance>
0.3835431039

$$$$
BACE1_verubecestat_401__alternate_401_seed4409_ex32__pose15


 31 33  0  0  0  0  0  0  0  0999 V2000
   25.6330   13.2320   19.9190 C   0  0  0  0  0  0  0  0  0  0  0  0
   24.8750   12.3560   20.6950 C   0  0  0  0  0  0  0  0  0  0  0  0
   23.7980   11.6660   20.1870 C   0  0  0  0  0  0  0  0  0  0  0  0
   23.4110   11.8400   18.8640 C   0  0  0  0  0  0  0  0  0  0  0  0
   24.1550   12.7030   18.0780 C   0  0  0  0  0  0  0  0  0  0  0  0
   25.2520   13.3640   18.5920 C   0  0  0  0  0  0  0  0  0  0  0  0
   25.9830   14.1820   17.7920 F   0  0  0  0  0  0  0  0  0  0  0  0
   28.6590   10.4640   22.2290 C   0  0  0  0  0  0  0  0  0  0  0  0
   28.1380   11.7250   21.6650 N   0  0  0  0  0  0  0  0  0  0  0  0
   27.4930   12.7100   22.4460 C   0  0  0  0  0  0  0  0  0  0  0  0
   27.5290   12.4620   23.7920 N   0  0  0  0  0  0  0  0  0  0  0  0
   26.9350   13.7710   21.9520 N   0  0  0  0  0  0  0  0  0  0  0  0
   26.8200   13.9780   20.5090 C   0  0  0  0  0  0  0  0  0  0  0  0
   26.5620   15.4830   20.3970 C   0  0  0  0  0  0  0  0  0  0  0  0
   28.1470   13.7040   19.8370 C   0  0  0  0  0  0  0  0  0  0  0  0
   28.6090   12.0010   20.0320 S   0  0  0  0  0  0  0  0  0  0  0  0
   30.0590   11.9580   19.9900 O   0  0  0  0  0  0  0  0  0  0  0  0
   27.7570   11.1340   19.2790 O   0  0  0  0  0  0  0  0  0  0  0  0
   27.1070   13.0920   24.4200 H   0  0  0  0  0  0  0  0  0  0  0  0
   27.9780   11.6550   24.1330 H   0  0  0  0  0  0  0  0  0  0  0  0
   23.1190   10.8200   21.0740 N   0  0  0  0  0  0  0  0  0  0  0  0
   23.4620    9.5390   21.4680 C   0  0  0  0  0  0  0  0  0  0  0  0
   24.3730    8.8750   20.9910 O   0  0  0  0  0  0  0  0  0  0  0  0
   22.2930   11.1840   21.4670 H   0  0  0  0  0  0  0  0  0  0  0  0
   22.6560    8.9830   22.5820 C   0  0  0  0  0  0  0  0  0  0  0  0
   22.3110    7.6420   22.5830 C   0  0  0  0  0  0  0  0  0  0  0  0
   21.5570    7.1770   23.6460 C   0  0  0  0  0  0  0  0  0  0  0  0
   21.1810    8.0430   24.6540 C   0  0  0  0  0  0  0  0  0  0  0  0
   20.4410    7.6390   25.7010 F   0  0  0  0  0  0  0  0  0  0  0  0
   21.5680    9.3610   24.5620 C   0  0  0  0  0  0  0  0  0  0  0  0
   22.2950    9.8430   23.5400 N   0  0  0  0  0  0  0  0  0  0  0  0
  8  9  1  0
  9 10  1  0
 10 11  1  0
 10 12  2  0
 12 13  1  0
 13 14  1  0
 13  1  1  0
  1  2  2  0
  2  3  1  0
  3 21  1  0
 21 22  1  0
 22 23  2  0
 22 25  1  0
 25 26  2  0
 26 27  1  0
 27 28  2  0
 28 29  1  0
 28 30  1  0
 30 31  2  0
  3  4  2  0
  4  5  1  0
  5  6  2  0
  6  7  1  0
 13 15  1  0
 15 16  1  0
 16 17  2  0
 16 18  2  0
 16  9  1  0
  6  1  1  0
 31 25  1  0
 11 19  1  0
 11 20  1  0
 21 24  1  0
M  END
> <meeko>
{"is_sidechain": false}

> <source_group>
BACE1-401 observed AD isoform

> <source_system>
BACE1_verubecestat_401

> <source_run>
alternate_401_seed4409_ex32

> <source_seed>
4409

> <vina_pose_rank>
15

> <vina_affinity_kcal_mol>
-8.1440000000000001

> <vina_rmsd_to_crystal_angstrom>
6.7230999999999996

> <minimizedAffinity>
-7.47414

> <CNNscore>
0.1608191282

> <CNNaffinity>
5.2328333855

> <CNN_VS>
0.8415396810

> <CNNaffinity_variance>
0.1781876683

$$$$
BACE1_verubecestat_401__alternate_401_seed4409_ex32__pose16


 31 33  0  0  0  0  0  0  0  0999 V2000
   21.2730   12.4210   26.4090 C   0  0  0  0  0  0  0  0  0  0  0  0
   21.6210   12.1900   25.0780 C   0  0  0  0  0  0  0  0  0  0  0  0
   22.7840   12.6770   24.5270 C   0  0  0  0  0  0  0  0  0  0  0  0
   23.6550   13.4470   25.2870 C   0  0  0  0  0  0  0  0  0  0  0  0
   23.3270   13.6830   26.6110 C   0  0  0  0  0  0  0  0  0  0  0  0
   22.1720   13.1620   27.1600 C   0  0  0  0  0  0  0  0  0  0  0  0
   21.8880   13.3830   28.4690 F   0  0  0  0  0  0  0  0  0  0  0  0
   17.7690   15.5580   26.5860 C   0  0  0  0  0  0  0  0  0  0  0  0
   18.4150   14.2410   26.7470 N   0  0  0  0  0  0  0  0  0  0  0  0
   18.8550   13.7470   27.9950 C   0  0  0  0  0  0  0  0  0  0  0  0
   18.4940   14.5280   29.0600 N   0  0  0  0  0  0  0  0  0  0  0  0
   19.5200   12.6420   28.1400 N   0  0  0  0  0  0  0  0  0  0  0  0
   19.9810   11.8670   26.9900 C   0  0  0  0  0  0  0  0  0  0  0  0
   20.2630   10.4890   27.5960 C   0  0  0  0  0  0  0  0  0  0  0  0
   18.8550   11.6910   25.9960 C   0  0  0  0  0  0  0  0  0  0  0  0
   18.3540   13.2600   25.3330 S   0  0  0  0  0  0  0  0  0  0  0  0
   16.9560   13.1260   24.9640 O   0  0  0  0  0  0  0  0  0  0  0  0
   19.3590   13.8200   24.4850 O   0  0  0  0  0  0  0  0  0  0  0  0
   18.7550   14.2660   29.9730 H   0  0  0  0  0  0  0  0  0  0  0  0
   17.9740   15.3500   28.9140 H   0  0  0  0  0  0  0  0  0  0  0  0
   23.0130   12.3760   23.1780 N   0  0  0  0  0  0  0  0  0  0  0  0
   23.3670   13.2380   22.1550 C   0  0  0  0  0  0  0  0  0  0  0  0
   23.4130   14.4580   22.2470 O   0  0  0  0  0  0  0  0  0  0  0  0
   22.9090   11.4300   22.9260 H   0  0  0  0  0  0  0  0  0  0  0  0
   23.7450   12.5850   20.8790 C   0  0  0  0  0  0  0  0  0  0  0  0
   23.4350   11.2530   20.6660 C   0  0  0  0  0  0  0  0  0  0  0  0
   23.8130   10.6940   19.4580 C   0  0  0  0  0  0  0  0  0  0  0  0
   24.4710   11.4640   18.5190 C   0  0  0  0  0  0  0  0  0  0  0  0
   24.8650   10.9630   17.3360 F   0  0  0  0  0  0  0  0  0  0  0  0
   24.7400   12.7790   18.8250 C   0  0  0  0  0  0  0  0  0  0  0  0
   24.3910   13.3480   19.9910 N   0  0  0  0  0  0  0  0  0  0  0  0
  8  9  1  0
  9 10  1  0
 10 11  1  0
 10 12  2  0
 12 13  1  0
 13 14  1  0
 13  1  1  0
  1  2  2  0
  2  3  1  0
  3 21  1  0
 21 22  1  0
 22 23  2  0
 22 25  1  0
 25 26  2  0
 26 27  1  0
 27 28  2  0
 28 29  1  0
 28 30  1  0
 30 31  2  0
  3  4  2  0
  4  5  1  0
  5  6  2  0
  6  7  1  0
 13 15  1  0
 15 16  1  0
 16 17  2  0
 16 18  2  0
 16  9  1  0
  6  1  1  0
 31 25  1  0
 11 19  1  0
 11 20  1  0
 21 24  1  0
M  END
> <meeko>
{"is_sidechain": false}

> <source_group>
BACE1-401 observed AD isoform

> <source_system>
BACE1_verubecestat_401

> <source_run>
alternate_401_seed4409_ex32

> <source_seed>
4409

> <vina_pose_rank>
16

> <vina_affinity_kcal_mol>
-8.1280000000000001

> <vina_rmsd_to_crystal_angstrom>
6.6092000000000004

> <minimizedAffinity>
-8.17615

> <CNNscore>
0.5816937685

> <CNNaffinity>
5.4213795662

> <CNN_VS>
3.1535828114

> <CNNaffinity_variance>
0.3653450310

$$$$
BACE1_verubecestat_401__alternate_401_seed4409_ex32__pose17


 31 33  0  0  0  0  0  0  0  0999 V2000
   25.9300   13.1040   19.5130 C   0  0  0  0  0  0  0  0  0  0  0  0
   25.0100   12.5250   20.3850 C   0  0  0  0  0  0  0  0  0  0  0  0
   24.4000   11.3190   20.1180 C   0  0  0  0  0  0  0  0  0  0  0  0
   24.6730   10.6400   18.9370 C   0  0  0  0  0  0  0  0  0  0  0  0
   25.5870   11.1990   18.0610 C   0  0  0  0  0  0  0  0  0  0  0  0
   26.2140   12.3930   18.3570 C   0  0  0  0  0  0  0  0  0  0  0  0
   27.1290   12.9050   17.4950 F   0  0  0  0  0  0  0  0  0  0  0  0
   27.4480   13.4380   23.9550 C   0  0  0  0  0  0  0  0  0  0  0  0
   27.2310   13.8780   22.5630 N   0  0  0  0  0  0  0  0  0  0  0  0
   26.2190   14.7920   22.1940 C   0  0  0  0  0  0  0  0  0  0  0  0
   25.5590   15.3490   23.2560 N   0  0  0  0  0  0  0  0  0  0  0  0
   25.9440   15.1060   20.9650 N   0  0  0  0  0  0  0  0  0  0  0  0
   26.5890   14.4360   19.8380 C   0  0  0  0  0  0  0  0  0  0  0  0
   26.3450   15.4040   18.6770 C   0  0  0  0  0  0  0  0  0  0  0  0
   28.0850   14.3740   20.0570 C   0  0  0  0  0  0  0  0  0  0  0  0
   28.4700   13.3810   21.4770 S   0  0  0  0  0  0  0  0  0  0  0  0
   29.7280   13.8800   22.0020 O   0  0  0  0  0  0  0  0  0  0  0  0
   28.1880   11.9980   21.2450 O   0  0  0  0  0  0  0  0  0  0  0  0
   24.8360   16.0000   23.1000 H   0  0  0  0  0  0  0  0  0  0  0  0
   25.8070   15.1010   24.1760 H   0  0  0  0  0  0  0  0  0  0  0  0
   23.4930   10.8490   21.0760 N   0  0  0  0  0  0  0  0  0  0  0  0
   23.4480    9.6030   21.6750 C   0  0  0  0  0  0  0  0  0  0  0  0
   24.1400    8.6440   21.3580 O   0  0  0  0  0  0  0  0  0  0  0  0
   22.7990   11.4870   21.3590 H   0  0  0  0  0  0  0  0  0  0  0  0
   22.4980    9.4780   22.8070 C   0  0  0  0  0  0  0  0  0  0  0  0
   22.2650   10.5610   23.6360 C   0  0  0  0  0  0  0  0  0  0  0  0
   21.3700   10.3880   24.6780 C   0  0  0  0  0  0  0  0  0  0  0  0
   20.7460    9.1680   24.8530 C   0  0  0  0  0  0  0  0  0  0  0  0
   19.8770    8.9510   25.8550 F   0  0  0  0  0  0  0  0  0  0  0  0
   21.0470    8.1490   23.9790 C   0  0  0  0  0  0  0  0  0  0  0  0
   21.9150    8.2850   22.9630 N   0  0  0  0  0  0  0  0  0  0  0  0
  8  9  1  0
  9 10  1  0
 10 11  1  0
 10 12  2  0
 12 13  1  0
 13 14  1  0
 13  1  1  0
  1  2  2  0
  2  3  1  0
  3 21  1  0
 21 22  1  0
 22 23  2  0
 22 25  1  0
 25 26  2  0
 26 27  1  0
 27 28  2  0
 28 29  1  0
 28 30  1  0
 30 31  2  0
  3  4  2  0
  4  5  1  0
  5  6  2  0
  6  7  1  0
 13 15  1  0
 15 16  1  0
 16 17  2  0
 16 18  2  0
 16  9  1  0
  6  1  1  0
 31 25  1  0
 11 19  1  0
 11 20  1  0
 21 24  1  0
M  END
> <meeko>
{"is_sidechain": false}

> <source_group>
BACE1-401 observed AD isoform

> <source_system>
BACE1_verubecestat_401

> <source_run>
alternate_401_seed4409_ex32

> <source_seed>
4409

> <vina_pose_rank>
17

> <vina_affinity_kcal_mol>
-8.0440000000000005

> <vina_rmsd_to_crystal_angstrom>
6.7819000000000003

> <minimizedAffinity>
-7.61415

> <CNNscore>
0.0818771198

> <CNNaffinity>
5.1863636971

> <CNN_VS>
0.4246445298

> <CNNaffinity_variance>
0.2103118449

$$$$
BACE1_verubecestat_401__alternate_401_seed4409_ex32__pose18


 31 33  0  0  0  0  0  0  0  0999 V2000
   25.4570   12.4020   19.4550 C   0  0  0  0  0  0  0  0  0  0  0  0
   26.0920   11.2260   19.0610 C   0  0  0  0  0  0  0  0  0  0  0  0
   25.4130   10.0390   18.9030 C   0  0  0  0  0  0  0  0  0  0  0  0
   24.0490    9.9700   19.1590 C   0  0  0  0  0  0  0  0  0  0  0  0
   23.4010   11.1290   19.5480 C   0  0  0  0  0  0  0  0  0  0  0  0
   24.0900   12.3200   19.6710 C   0  0  0  0  0  0  0  0  0  0  0  0
   23.4250   13.4490   20.0250 F   0  0  0  0  0  0  0  0  0  0  0  0
   26.8550   13.2400   23.8700 C   0  0  0  0  0  0  0  0  0  0  0  0
   26.7280   13.4890   22.4200 N   0  0  0  0  0  0  0  0  0  0  0  0
   25.8260   14.4310   21.8770 C   0  0  0  0  0  0  0  0  0  0  0  0
   25.1910   15.1980   22.8170 N   0  0  0  0  0  0  0  0  0  0  0  0
   25.6230   14.5860   20.6050 N   0  0  0  0  0  0  0  0  0  0  0  0
   26.2350   13.6990   19.6170 C   0  0  0  0  0  0  0  0  0  0  0  0
   26.1270   14.5050   18.3190 C   0  0  0  0  0  0  0  0  0  0  0  0
   27.7080   13.5290   19.9120 C   0  0  0  0  0  0  0  0  0  0  0  0
   27.9460   12.7230   21.4750 S   0  0  0  0  0  0  0  0  0  0  0  0
   29.2300   13.1730   21.9820 O   0  0  0  0  0  0  0  0  0  0  0  0
   27.5340   11.3550   21.4310 O   0  0  0  0  0  0  0  0  0  0  0  0
   24.5420   15.8830   22.5360 H   0  0  0  0  0  0  0  0  0  0  0  0
   25.3830   15.0640   23.7740 H   0  0  0  0  0  0  0  0  0  0  0  0
   26.1710    8.9300   18.5060 N   0  0  0  0  0  0  0  0  0  0  0  0
   26.5570    7.8400   19.2640 C   0  0  0  0  0  0  0  0  0  0  0  0
   26.4000    7.7310   20.4730 O   0  0  0  0  0  0  0  0  0  0  0  0
   26.4650    8.9260   17.5660 H   0  0  0  0  0  0  0  0  0  0  0  0
   27.1750    6.7260   18.5040 C   0  0  0  0  0  0  0  0  0  0  0  0
   28.2860    6.0750   19.0110 C   0  0  0  0  0  0  0  0  0  0  0  0
   28.8220    5.0450   18.2590 C   0  0  0  0  0  0  0  0  0  0  0  0
   28.2440    4.7010   17.0520 C   0  0  0  0  0  0  0  0  0  0  0  0
   28.7350    3.7140   16.2840 F   0  0  0  0  0  0  0  0  0  0  0  0
   27.1440    5.4110   16.6290 C   0  0  0  0  0  0  0  0  0  0  0  0
   26.6040    6.4190   17.3340 N   0  0  0  0  0  0  0  0  0  0  0  0
  8  9  1  0
  9 10  1  0
 10 11  1  0
 10 12  2  0
 12 13  1  0
 13 14  1  0
 13  1  1  0
  1  2  2  0
  2  3  1  0
  3 21  1  0
 21 22  1  0
 22 23  2  0
 22 25  1  0
 25 26  2  0
 26 27  1  0
 27 28  2  0
 28 29  1  0
 28 30  1  0
 30 31  2  0
  3  4  2  0
  4  5  1  0
  5  6  2  0
  6  7  1  0
 13 15  1  0
 15 16  1  0
 16 17  2  0
 16 18  2  0
 16  9  1  0
  6  1  1  0
 31 25  1  0
 11 19  1  0
 11 20  1  0
 21 24  1  0
M  END
> <meeko>
{"is_sidechain": false}

> <source_group>
BACE1-401 observed AD isoform

> <source_system>
BACE1_verubecestat_401

> <source_run>
alternate_401_seed4409_ex32

> <source_seed>
4409

> <vina_pose_rank>
18

> <vina_affinity_kcal_mol>
-8.0180000000000007

> <vina_rmsd_to_crystal_angstrom>
5.6886999999999999

> <minimizedAffinity>
-7.97412

> <CNNscore>
0.3292610943

> <CNNaffinity>
5.3748970032

> <CNN_VS>
1.7697445154

> <CNNaffinity_variance>
0.1857247800

$$$$
BACE1_verubecestat_401__alternate_401_seed4409_ex32__pose19


 31 33  0  0  0  0  0  0  0  0999 V2000
   27.2970   12.8090   21.5210 C   0  0  0  0  0  0  0  0  0  0  0  0
   26.0600   12.5360   22.1020 C   0  0  0  0  0  0  0  0  0  0  0  0
   25.6630   13.1050   23.2910 C   0  0  0  0  0  0  0  0  0  0  0  0
   26.5100   13.9700   23.9730 C   0  0  0  0  0  0  0  0  0  0  0  0
   27.7400   14.2560   23.4090 C   0  0  0  0  0  0  0  0  0  0  0  0
   28.1120   13.7020   22.2000 C   0  0  0  0  0  0  0  0  0  0  0  0
   29.3130   14.0210   21.6530 F   0  0  0  0  0  0  0  0  0  0  0  0
   24.0920   13.2720   18.1060 C   0  0  0  0  0  0  0  0  0  0  0  0
   25.3750   12.8630   18.7110 N   0  0  0  0  0  0  0  0  0  0  0  0
   25.6480   11.5380   19.1160 C   0  0  0  0  0  0  0  0  0  0  0  0
   24.6790   10.6380   18.7600 N   0  0  0  0  0  0  0  0  0  0  0  0
   26.7250   11.1830   19.7470 N   0  0  0  0  0  0  0  0  0  0  0  0
   27.7050   12.1650   20.2050 C   0  0  0  0  0  0  0  0  0  0  0  0
   28.9580   11.3160   20.4370 C   0  0  0  0  0  0  0  0  0  0  0  0
   28.0280   13.1360   19.0900 C   0  0  0  0  0  0  0  0  0  0  0  0
   26.5920   14.0800   18.6450 S   0  0  0  0  0  0  0  0  0  0  0  0
   26.7550   14.4490   17.2510 O   0  0  0  0  0  0  0  0  0  0  0  0
   26.2190   14.9920   19.6810 O   0  0  0  0  0  0  0  0  0  0  0  0
   24.7790    9.6880   18.9980 H   0  0  0  0  0  0  0  0  0  0  0  0
   23.8830   10.9410   18.2650 H   0  0  0  0  0  0  0  0  0  0  0  0
   24.3960   12.7450   23.7680 N   0  0  0  0  0  0  0  0  0  0  0  0
   23.1620   13.2320   23.3760 C   0  0  0  0  0  0  0  0  0  0  0  0
   22.9870   14.1760   22.6160 O   0  0  0  0  0  0  0  0  0  0  0  0
   24.3830   12.0560   24.4720 H   0  0  0  0  0  0  0  0  0  0  0  0
   21.9910   12.5000   23.9170 C   0  0  0  0  0  0  0  0  0  0  0  0
   22.0630   11.1320   24.1140 C   0  0  0  0  0  0  0  0  0  0  0  0
   20.9400   10.4990   24.6190 C   0  0  0  0  0  0  0  0  0  0  0  0
   19.8080   11.2350   24.9080 C   0  0  0  0  0  0  0  0  0  0  0  0
   18.6920   10.6630   25.3910 F   0  0  0  0  0  0  0  0  0  0  0  0
   19.8320   12.5910   24.6730 C   0  0  0  0  0  0  0  0  0  0  0  0
   20.9040   13.2320   24.1780 N   0  0  0  0  0  0  0  0  0  0  0  0
  8  9  1  0
  9 10  1  0
 10 11  1  0
 10 12  2  0
 12 13  1  0
 13 14  1  0
 13  1  1  0
  1  2  2  0
  2  3  1  0
  3 21  1  0
 21 22  1  0
 22 23  2  0
 22 25  1  0
 25 26  2  0
 26 27  1  0
 27 28  2  0
 28 29  1  0
 28 30  1  0
 30 31  2  0
  3  4  2  0
  4  5  1  0
  5  6  2  0
  6  7  1  0
 13 15  1  0
 15 16  1  0
 16 17  2  0
 16 18  2  0
 16  9  1  0
  6  1  1  0
 31 25  1  0
 11 19  1  0
 11 20  1  0
 21 24  1  0
M  END
> <meeko>
{"is_sidechain": false}

> <source_group>
BACE1-401 observed AD isoform

> <source_system>
BACE1_verubecestat_401

> <source_run>
alternate_401_seed4409_ex32

> <source_seed>
4409

> <vina_pose_rank>
19

> <vina_affinity_kcal_mol>
-8.0009999999999994

> <vina_rmsd_to_crystal_angstrom>
7.6637000000000004

> <minimizedAffinity>
-7.29956

> <CNNscore>
0.0477970801

> <CNNaffinity>
4.0969104767

> <CNN_VS>
0.1958203614

> <CNNaffinity_variance>
1.0755299330

$$$$
BACE1_verubecestat_401__alternate_401_seed4409_ex32__pose20


 31 33  0  0  0  0  0  0  0  0999 V2000
   26.0460   12.0040   20.2070 C   0  0  0  0  0  0  0  0  0  0  0  0
   25.3740   11.0500   20.9710 C   0  0  0  0  0  0  0  0  0  0  0  0
   24.0780   10.6710   20.7020 C   0  0  0  0  0  0  0  0  0  0  0  0
   23.3770   11.2560   19.6550 C   0  0  0  0  0  0  0  0  0  0  0  0
   24.0290   12.2030   18.8850 C   0  0  0  0  0  0  0  0  0  0  0  0
   25.3400   12.5490   19.1460 C   0  0  0  0  0  0  0  0  0  0  0  0
   25.9660   13.4590   18.3560 F   0  0  0  0  0  0  0  0  0  0  0  0
   26.3980   15.7200   23.0730 C   0  0  0  0  0  0  0  0  0  0  0  0
   26.8840   14.5980   22.2470 N   0  0  0  0  0  0  0  0  0  0  0  0
   27.4260   14.7710   20.9540 C   0  0  0  0  0  0  0  0  0  0  0  0
   27.6000   16.0810   20.5960 N   0  0  0  0  0  0  0  0  0  0  0  0
   27.7570   13.7890   20.1730 N   0  0  0  0  0  0  0  0  0  0  0  0
   27.4790   12.3980   20.5270 C   0  0  0  0  0  0  0  0  0  0  0  0
   28.4230   11.6160   19.6110 C   0  0  0  0  0  0  0  0  0  0  0  0
   27.9160   12.1270   21.9500 C   0  0  0  0  0  0  0  0  0  0  0  0
   26.9690   13.1000   23.0930 S   0  0  0  0  0  0  0  0  0  0  0  0
   27.8130   13.3100   24.2560 O   0  0  0  0  0  0  0  0  0  0  0  0
   25.6090   12.6650   23.1550 O   0  0  0  0  0  0  0  0  0  0  0  0
   27.9720   16.3040   19.7120 H   0  0  0  0  0  0  0  0  0  0  0  0
   27.3540   16.8000   21.2220 H   0  0  0  0  0  0  0  0  0  0  0  0
   23.5190    9.7040   21.5480 N   0  0  0  0  0  0  0  0  0  0  0  0
   22.8170    9.8970   22.7240 C   0  0  0  0  0  0  0  0  0  0  0  0
   22.6800   10.9720   23.2940 O   0  0  0  0  0  0  0  0  0  0  0  0
   23.6410    8.7680   21.2690 H   0  0  0  0  0  0  0  0  0  0  0  0
   22.1690    8.6850   23.2810 C   0  0  0  0  0  0  0  0  0  0  0  0
   22.3120    7.4680   22.6370 C   0  0  0  0  0  0  0  0  0  0  0  0
   21.6840    6.3700   23.1990 C   0  0  0  0  0  0  0  0  0  0  0  0
   20.9530    6.5160   24.3620 C   0  0  0  0  0  0  0  0  0  0  0  0
   20.3190    5.4810   24.9390 F   0  0  0  0  0  0  0  0  0  0  0  0
   20.8640    7.7690   24.9250 C   0  0  0  0  0  0  0  0  0  0  0  0
   21.4570    8.8540   24.4000 N   0  0  0  0  0  0  0  0  0  0  0  0
  8  9  1  0
  9 10  1  0
 10 11  1  0
 10 12  2  0
 12 13  1  0
 13 14  1  0
 13  1  1  0
  1  2  2  0
  2  3  1  0
  3 21  1  0
 21 22  1  0
 22 23  2  0
 22 25  1  0
 25 26  2  0
 26 27  1  0
 27 28  2  0
 28 29  1  0
 28 30  1  0
 30 31  2  0
  3  4  2  0
  4  5  1  0
  5  6  2  0
  6  7  1  0
 13 15  1  0
 15 16  1  0
 16 17  2  0
 16 18  2  0
 16  9  1  0
  6  1  1  0
 31 25  1  0
 11 19  1  0
 11 20  1  0
 21 24  1  0
M  END
> <meeko>
{"is_sidechain": false}

> <source_group>
BACE1-401 observed AD isoform

> <source_system>
BACE1_verubecestat_401

> <source_run>
alternate_401_seed4409_ex32

> <source_seed>
4409

> <vina_pose_rank>
20

> <vina_affinity_kcal_mol>
-7.9950000000000001

> <vina_rmsd_to_crystal_angstrom>
6.7450999999999999

> <minimizedAffinity>
-7.92352

> <CNNscore>
0.2116444856

> <CNNaffinity>
5.3655643463

> <CNN_VS>
1.1355921030

> <CNNaffinity_variance>
0.0544182509

$$$$
