BACE1_verubecestat__canonical_obabel_seed4409_ex32__pose01
     RDKit          3D

 45 47  0  0  0  0  0  0  0  0999 V2000
   23.0960   11.6750   25.1400 C   0  0  0  0  0  0  0  0  0  0  0  0
   22.4830   11.1280   23.9130 N   0  0  0  0  0  0  0  0  0  0  0  0
   22.4110    9.7440   23.6390 C   0  0  0  0  0  0  0  0  0  0  0  0
   22.8200    8.9510   24.6770 N   0  0  0  0  0  0  0  0  0  0  0  0
   21.9760    9.2520   22.5210 N   0  0  0  0  0  0  0  0  0  0  0  0
   21.6320   10.1080   21.3870 C   0  0  2  0  0  0  0  0  0  0  0  0
   20.7560    9.1960   20.5220 C   0  0  0  0  0  0  0  0  0  0  0  0
   22.8590   10.5140   20.5850 C   0  0  0  0  0  0  0  0  0  0  0  0
   24.1370   10.1220   20.9780 C   0  0  0  0  0  0  0  0  0  0  0  0
   25.2650   10.4780   20.2740 C   0  0  0  0  0  0  0  0  0  0  0  0
   26.4900   10.0160   20.7750 N   0  0  0  0  0  0  0  0  0  0  0  0
   27.6060   10.7560   21.1250 C   0  0  0  0  0  0  0  0  0  0  0  0
   27.7470   11.9550   20.9250 O   0  0  0  0  0  0  0  0  0  0  0  0
   28.6720    9.9990   21.8250 C   0  0  0  0  0  0  0  0  0  0  0  0
   28.6100    8.6180   21.8910 C   0  0  0  0  0  0  0  0  0  0  0  0
   29.6310    7.9630   22.5580 C   0  0  0  0  0  0  0  0  0  0  0  0
   30.6610    8.6900   23.1220 C   0  0  0  0  0  0  0  0  0  0  0  0
   31.6690    8.0990   23.7870 F   0  0  0  0  0  0  0  0  0  0  0  0
   30.6320   10.0620   23.0080 C   0  0  0  0  0  0  0  0  0  0  0  0
   29.6520   10.7250   22.3730 N   0  0  0  0  0  0  0  0  0  0  0  0
   25.1610   11.2340   19.1140 C   0  0  0  0  0  0  0  0  0  0  0  0
   23.8990   11.6350   18.7100 C   0  0  0  0  0  0  0  0  0  0  0  0
   22.7790   11.2980   19.4440 C   0  0  0  0  0  0  0  0  0  0  0  0
   21.5560   11.7280   19.0430 F   0  0  0  0  0  0  0  0  0  0  0  0
   20.7590   11.2540   21.8470 C   0  0  0  0  0  0  0  0  0  0  0  0
   21.6440   12.3020   22.9740 S   0  0  0  0  0  0  0  0  0  0  0  0
   20.6500   12.9130   23.8390 O   0  0  0  0  0  0  0  0  0  0  0  0
   22.6870   13.0230   22.3150 O   0  0  0  0  0  0  0  0  0  0  0  0
   22.6052   11.2371   26.0217 H   0  0  0  0  0  0  0  0  0  0  0  0
   24.1677   11.4276   25.1562 H   0  0  0  0  0  0  0  0  0  0  0  0
   22.9717   12.7678   25.1562 H   0  0  0  0  0  0  0  0  0  0  0  0
   22.8070    7.9710   24.5830 H   0  0  0  0  0  0  0  0  0  0  0  0
   23.1280    9.3600   25.5190 H   0  0  0  0  0  0  0  0  0  0  0  0
   20.1407    8.5555   21.1710 H   0  0  0  0  0  0  0  0  0  0  0  0
   20.1014    9.8110   19.8870 H   0  0  0  0  0  0  0  0  0  0  0  0
   21.3969    8.5667   19.8870 H   0  0  0  0  0  0  0  0  0  0  0  0
   24.2484    9.5063   21.8827 H   0  0  0  0  0  0  0  0  0  0  0  0
   26.5650    9.0420   20.8940 H   0  0  0  0  0  0  0  0  0  0  0  0
   27.7803    8.0615   21.4306 H   0  0  0  0  0  0  0  0  0  0  0  0
   29.6220    6.8660   22.6386 H   0  0  0  0  0  0  0  0  0  0  0  0
   31.4506   10.6425   23.4585 H   0  0  0  0  0  0  0  0  0  0  0  0
   26.0547   11.5062   18.5333 H   0  0  0  0  0  0  0  0  0  0  0  0
   23.7870   12.2302   17.7917 H   0  0  0  0  0  0  0  0  0  0  0  0
   20.4479   11.8447   20.9728 H   0  0  0  0  0  0  0  0  0  0  0  0
   19.8782   10.8435   22.3625 H   0  0  0  0  0  0  0  0  0  0  0  0
  1  2  1  0
  2  3  1  0
  3  4  1  0
  3  5  2  0
  5  6  1  0
  6  7  1  6
  6  8  1  0
  8  9  2  0
  9 10  1  0
 10 11  1  0
 11 12  1  0
 12 13  2  0
 12 14  1  0
 14 15  2  0
 15 16  1  0
 16 17  2  0
 17 18  1  0
 17 19  1  0
 19 20  2  0
 10 21  2  0
 21 22  1  0
 22 23  2  0
 23 24  1  0
  6 25  1  0
 25 26  1  0
 26 27  2  0
 26 28  2  0
 26  2  1  0
 23  8  1  0
 20 14  1  0
  1 29  1  0
  1 30  1  0
  1 31  1  0
  4 32  1  0
  4 33  1  0
  7 34  1  0
  7 35  1  0
  7 36  1  0
  9 37  1  0
 11 38  1  0
 15 39  1  0
 16 40  1  0
 19 41  1  0
 21 42  1  0
 22 43  1  0
 25 44  1  0
 25 45  1  0
M  END
>  <meeko>  (1)
{"is_sidechain": false}

>  <source_group>  (1)
BACE1 canonical

>  <source_system>  (1)
BACE1_verubecestat

>  <source_run>  (1)
canonical_obabel_seed4409_ex32

>  <source_seed>  (1)
4409

>  <vina_pose_rank>  (1)
1

>  <vina_affinity_kcal_mol>  (1)
-9.4930000000000003

>  <vina_rmsd_to_crystal_angstrom>  (1)
0.9577

$$$$
BACE1_verubecestat__canonical_obabel_seed4409_ex32__pose02
     RDKit          3D

 45 47  0  0  0  0  0  0  0  0999 V2000
   16.9610   14.9580   25.3890 C   0  0  0  0  0  0  0  0  0  0  0  0
   18.0440   14.5230   26.2930 N   0  0  0  0  0  0  0  0  0  0  0  0
   19.2550   15.2350   26.4410 C   0  0  0  0  0  0  0  0  0  0  0  0
   19.2750   16.4400   25.7900 N   0  0  0  0  0  0  0  0  0  0  0  0
   20.2590   14.8130   27.1450 N   0  0  0  0  0  0  0  0  0  0  0  0
   20.2640   13.4850   27.7570 C   0  0  2  0  0  0  0  0  0  0  0  0
   21.3520   13.6040   28.8270 C   0  0  0  0  0  0  0  0  0  0  0  0
   20.6650   12.4020   26.7670 C   0  0  0  0  0  0  0  0  0  0  0  0
   21.0650   12.7240   25.4710 C   0  0  0  0  0  0  0  0  0  0  0  0
   21.4310   11.7650   24.5540 C   0  0  0  0  0  0  0  0  0  0  0  0
   21.8150   12.2230   23.2860 N   0  0  0  0  0  0  0  0  0  0  0  0
   23.0910   12.4890   22.8220 C   0  0  0  0  0  0  0  0  0  0  0  0
   24.1050   12.4870   23.5080 O   0  0  0  0  0  0  0  0  0  0  0  0
   23.1920   12.7580   21.3670 C   0  0  0  0  0  0  0  0  0  0  0  0
   22.0440   12.8270   20.5960 C   0  0  0  0  0  0  0  0  0  0  0  0
   22.1970   13.0790   19.2440 C   0  0  0  0  0  0  0  0  0  0  0  0
   23.4610   13.2530   18.7150 C   0  0  0  0  0  0  0  0  0  0  0  0
   23.6590   13.4900   17.4070 F   0  0  0  0  0  0  0  0  0  0  0  0
   24.5430   13.1600   19.5620 C   0  0  0  0  0  0  0  0  0  0  0  0
   24.4260   12.9110   20.8770 N   0  0  0  0  0  0  0  0  0  0  0  0
   21.4330   10.4210   24.9040 C   0  0  0  0  0  0  0  0  0  0  0  0
   21.0350   10.0830   26.1860 C   0  0  0  0  0  0  0  0  0  0  0  0
   20.6410   11.0530   27.0850 C   0  0  0  0  0  0  0  0  0  0  0  0
   20.2260   10.6920   28.3270 F   0  0  0  0  0  0  0  0  0  0  0  0
   18.9570   13.2410   28.4790 C   0  0  0  0  0  0  0  0  0  0  0  0
   17.6010   13.2250   27.3330 S   0  0  0  0  0  0  0  0  0  0  0  0
   16.4280   13.6490   28.0750 O   0  0  0  0  0  0  0  0  0  0  0  0
   17.6430   12.0760   26.4830 O   0  0  0  0  0  0  0  0  0  0  0  0
   16.1027   15.3027   25.9844 H   0  0  0  0  0  0  0  0  0  0  0  0
   17.3214   15.7811   24.7545 H   0  0  0  0  0  0  0  0  0  0  0  0
   16.6519   14.1143   24.7545 H   0  0  0  0  0  0  0  0  0  0  0  0
   20.0760   17.0100   25.8340 H   0  0  0  0  0  0  0  0  0  0  0  0
   18.4870   16.7360   25.2790 H   0  0  0  0  0  0  0  0  0  0  0  0
   20.8919   13.5537   29.8249 H   0  0  0  0  0  0  0  0  0  0  0  0
   22.0706   12.7791   28.7125 H   0  0  0  0  0  0  0  0  0  0  0  0
   21.8753   14.5647   28.7125 H   0  0  0  0  0  0  0  0  0  0  0  0
   21.0890   13.7819   25.1706 H   0  0  0  0  0  0  0  0  0  0  0  0
   21.0840   12.3740   22.6450 H   0  0  0  0  0  0  0  0  0  0  0  0
   21.0480   12.6868   21.0414 H   0  0  0  0  0  0  0  0  0  0  0  0
   21.3135   13.1406   18.5916 H   0  0  0  0  0  0  0  0  0  0  0  0
   25.5505   13.2960   19.1420 H   0  0  0  0  0  0  0  0  0  0  0  0
   21.7415    9.6485   24.1843 H   0  0  0  0  0  0  0  0  0  0  0  0
   21.0328    9.0265   26.4924 H   0  0  0  0  0  0  0  0  0  0  0  0
   19.0052   12.2708   28.9951 H   0  0  0  0  0  0  0  0  0  0  0  0
   18.7971   14.0518   29.2050 H   0  0  0  0  0  0  0  0  0  0  0  0
  1  2  1  0
  2  3  1  0
  3  4  1  0
  3  5  2  0
  5  6  1  0
  6  7  1  1
  6  8  1  0
  8  9  2  0
  9 10  1  0
 10 11  1  0
 11 12  1  0
 12 13  2  0
 12 14  1  0
 14 15  2  0
 15 16  1  0
 16 17  2  0
 17 18  1  0
 17 19  1  0
 19 20  2  0
 10 21  2  0
 21 22  1  0
 22 23  2  0
 23 24  1  0
  6 25  1  0
 25 26  1  0
 26 27  2  0
 26 28  2  0
 26  2  1  0
 23  8  1  0
 20 14  1  0
  1 29  1  0
  1 30  1  0
  1 31  1  0
  4 32  1  0
  4 33  1  0
  7 34  1  0
  7 35  1  0
  7 36  1  0
  9 37  1  0
 11 38  1  0
 15 39  1  0
 16 40  1  0
 19 41  1  0
 21 42  1  0
 22 43  1  0
 25 44  1  0
 25 45  1  0
M  END
>  <meeko>  (2)
{"is_sidechain": false}

>  <source_group>  (2)
BACE1 canonical

>  <source_system>  (2)
BACE1_verubecestat

>  <source_run>  (2)
canonical_obabel_seed4409_ex32

>  <source_seed>  (2)
4409

>  <vina_pose_rank>  (2)
2

>  <vina_affinity_kcal_mol>  (2)
-8.548

>  <vina_rmsd_to_crystal_angstrom>  (2)
7.3760000000000003

$$$$
BACE1_verubecestat__canonical_obabel_seed4409_ex32__pose03
     RDKit          3D

 45 47  0  0  0  0  0  0  0  0999 V2000
   27.7730   12.0250   22.8310 C   0  0  0  0  0  0  0  0  0  0  0  0
   27.0300   12.4170   21.6170 N   0  0  0  0  0  0  0  0  0  0  0  0
   26.5380   13.7240   21.4030 C   0  0  0  0  0  0  0  0  0  0  0  0
   26.9430   14.6310   22.3470 N   0  0  0  0  0  0  0  0  0  0  0  0
   25.7920   14.0590   20.3970 N   0  0  0  0  0  0  0  0  0  0  0  0
   25.2890   13.0650   19.4500 C   0  0  2  0  0  0  0  0  0  0  0  0
   24.8980   13.9140   18.2370 C   0  0  0  0  0  0  0  0  0  0  0  0
   24.0490   12.3550   19.9720 C   0  0  0  0  0  0  0  0  0  0  0  0
   23.5690   12.5980   21.2580 C   0  0  0  0  0  0  0  0  0  0  0  0
   22.4520   11.9670   21.7570 C   0  0  0  0  0  0  0  0  0  0  0  0
   22.0730   12.3030   23.0640 N   0  0  0  0  0  0  0  0  0  0  0  0
   22.3350   11.6160   24.2350 C   0  0  0  0  0  0  0  0  0  0  0  0
   22.8470   10.5060   24.3010 O   0  0  0  0  0  0  0  0  0  0  0  0
   21.9840   12.3350   25.4840 C   0  0  0  0  0  0  0  0  0  0  0  0
   20.6690   12.6930   25.7280 C   0  0  0  0  0  0  0  0  0  0  0  0
   20.3980   13.3650   26.9080 C   0  0  0  0  0  0  0  0  0  0  0  0
   21.4240   13.6490   27.7890 C   0  0  0  0  0  0  0  0  0  0  0  0
   21.2100   14.3060   28.9410 F   0  0  0  0  0  0  0  0  0  0  0  0
   22.7000   13.2560   27.4540 C   0  0  0  0  0  0  0  0  0  0  0  0
   22.9950   12.6090   26.3150 N   0  0  0  0  0  0  0  0  0  0  0  0
   21.7410   11.0680   20.9720 C   0  0  0  0  0  0  0  0  0  0  0  0
   22.2060   10.8120   19.6940 C   0  0  0  0  0  0  0  0  0  0  0  0
   23.3460   11.4280   19.2180 C   0  0  0  0  0  0  0  0  0  0  0  0
   23.7980   11.1370   17.9710 F   0  0  0  0  0  0  0  0  0  0  0  0
   26.4120   12.1530   19.0090 C   0  0  0  0  0  0  0  0  0  0  0  0
   27.0360   11.2180   20.3820 S   0  0  0  0  0  0  0  0  0  0  0  0
   28.4240   10.9170   20.0820 O   0  0  0  0  0  0  0  0  0  0  0  0
   26.0860   10.2520   20.8380 O   0  0  0  0  0  0  0  0  0  0  0  0
   27.2033   12.3256   23.7226 H   0  0  0  0  0  0  0  0  0  0  0  0
   27.9156   10.9343   22.8374 H   0  0  0  0  0  0  0  0  0  0  0  0
   28.7538   12.5230   22.8374 H   0  0  0  0  0  0  0  0  0  0  0  0
   26.6520   15.5690   22.2840 H   0  0  0  0  0  0  0  0  0  0  0  0
   27.5250   14.3440   23.0870 H   0  0  0  0  0  0  0  0  0  0  0  0
   24.4607   14.8634   18.5796 H   0  0  0  0  0  0  0  0  0  0  0  0
   25.7920   14.1199   17.6300 H   0  0  0  0  0  0  0  0  0  0  0  0
   24.1604   13.3685   17.6300 H   0  0  0  0  0  0  0  0  0  0  0  0
   24.1012   13.3189   21.8960 H   0  0  0  0  0  0  0  0  0  0  0  0
   21.5540   13.1350   23.1600 H   0  0  0  0  0  0  0  0  0  0  0  0
   19.8697   12.4527   25.0115 H   0  0  0  0  0  0  0  0  0  0  0  0
   19.3683   13.6721   27.1435 H   0  0  0  0  0  0  0  0  0  0  0  0
   23.5180   13.4831   28.1536 H   0  0  0  0  0  0  0  0  0  0  0  0
   20.8355   10.5744   21.3548 H   0  0  0  0  0  0  0  0  0  0  0  0
   21.6599   10.1082   19.0487 H   0  0  0  0  0  0  0  0  0  0  0  0
   26.0348   11.4605   18.2421 H   0  0  0  0  0  0  0  0  0  0  0  0
   27.2272   12.7679   18.6000 H   0  0  0  0  0  0  0  0  0  0  0  0
  1  2  1  0
  2  3  1  0
  3  4  1  0
  3  5  2  0
  5  6  1  0
  6  7  1  6
  6  8  1  0
  8  9  2  0
  9 10  1  0
 10 11  1  0
 11 12  1  0
 12 13  2  0
 12 14  1  0
 14 15  2  0
 15 16  1  0
 16 17  2  0
 17 18  1  0
 17 19  1  0
 19 20  2  0
 10 21  2  0
 21 22  1  0
 22 23  2  0
 23 24  1  0
  6 25  1  0
 25 26  1  0
 26 27  2  0
 26 28  2  0
 26  2  1  0
 23  8  1  0
 20 14  1  0
  1 29  1  0
  1 30  1  0
  1 31  1  0
  4 32  1  0
  4 33  1  0
  7 34  1  0
  7 35  1  0
  7 36  1  0
  9 37  1  0
 11 38  1  0
 15 39  1  0
 16 40  1  0
 19 41  1  0
 21 42  1  0
 22 43  1  0
 25 44  1  0
 25 45  1  0
M  END
>  <meeko>  (3)
{"is_sidechain": false}

>  <source_group>  (3)
BACE1 canonical

>  <source_system>  (3)
BACE1_verubecestat

>  <source_run>  (3)
canonical_obabel_seed4409_ex32

>  <source_seed>  (3)
4409

>  <vina_pose_rank>  (3)
3

>  <vina_affinity_kcal_mol>  (3)
-8.3640000000000008

>  <vina_rmsd_to_crystal_angstrom>  (3)
7.0800999999999998

$$$$
BACE1_verubecestat__canonical_obabel_seed4409_ex32__pose04
     RDKit          3D

 45 47  0  0  0  0  0  0  0  0999 V2000
   23.0740   10.2040   23.3480 C   0  0  0  0  0  0  0  0  0  0  0  0
   23.2550   10.8110   22.0150 N   0  0  0  0  0  0  0  0  0  0  0  0
   23.5050   10.0510   20.8500 C   0  0  0  0  0  0  0  0  0  0  0  0
   23.4140    8.6980   21.0400 N   0  0  0  0  0  0  0  0  0  0  0  0
   23.7740   10.5720   19.6930 N   0  0  0  0  0  0  0  0  0  0  0  0
   23.9620   12.0120   19.5230 C   0  0  2  0  0  0  0  0  0  0  0  0
   23.7770   12.2070   18.0160 C   0  0  0  0  0  0  0  0  0  0  0  0
   25.3660   12.4530   19.9070 C   0  0  0  0  0  0  0  0  0  0  0  0
   26.2880   11.5470   20.4270 C   0  0  0  0  0  0  0  0  0  0  0  0
   27.5640   11.9190   20.7860 C   0  0  0  0  0  0  0  0  0  0  0  0
   28.3930   10.9100   21.2930 N   0  0  0  0  0  0  0  0  0  0  0  0
   29.0480   10.8710   22.5110 C   0  0  0  0  0  0  0  0  0  0  0  0
   29.1100   11.7980   23.3080 O   0  0  0  0  0  0  0  0  0  0  0  0
   29.6810    9.5720   22.8490 C   0  0  0  0  0  0  0  0  0  0  0  0
   29.1390    8.3940   22.3660 C   0  0  0  0  0  0  0  0  0  0  0  0
   29.7680    7.2110   22.7140 C   0  0  0  0  0  0  0  0  0  0  0  0
   30.8950    7.2410   23.5110 C   0  0  0  0  0  0  0  0  0  0  0  0
   31.5340    6.1180   23.8820 F   0  0  0  0  0  0  0  0  0  0  0  0
   31.3560    8.4620   23.9470 C   0  0  0  0  0  0  0  0  0  0  0  0
   30.7630    9.6260   23.6310 N   0  0  0  0  0  0  0  0  0  0  0  0
   27.9880   13.2310   20.6170 C   0  0  0  0  0  0  0  0  0  0  0  0
   27.0840   14.1450   20.1050 C   0  0  0  0  0  0  0  0  0  0  0  0
   25.7970   13.7640   19.7800 C   0  0  0  0  0  0  0  0  0  0  0  0
   24.9210   14.6870   19.3070 F   0  0  0  0  0  0  0  0  0  0  0  0
   22.8430   12.7660   20.2080 C   0  0  0  0  0  0  0  0  0  0  0  0
   22.8830   12.4910   21.9610 S   0  0  0  0  0  0  0  0  0  0  0  0
   21.5200   12.6450   22.4350 O   0  0  0  0  0  0  0  0  0  0  0  0
   24.0190   13.1120   22.5670 O   0  0  0  0  0  0  0  0  0  0  0  0
   23.2967   10.9509   24.1243 H   0  0  0  0  0  0  0  0  0  0  0  0
   22.0345    9.8610   23.4566 H   0  0  0  0  0  0  0  0  0  0  0  0
   23.7559    9.3477   23.4566 H   0  0  0  0  0  0  0  0  0  0  0  0
   23.5720    8.0840   20.2860 H   0  0  0  0  0  0  0  0  0  0  0  0
   23.1910    8.3390   21.9290 H   0  0  0  0  0  0  0  0  0  0  0  0
   23.0300   12.9944   17.8371 H   0  0  0  0  0  0  0  0  0  0  0  0
   24.7356   12.5015   17.5640 H   0  0  0  0  0  0  0  0  0  0  0  0
   23.4325   11.2652   17.5640 H   0  0  0  0  0  0  0  0  0  0  0  0
   25.9857   10.4972   20.5553 H   0  0  0  0  0  0  0  0  0  0  0  0
   28.5250   10.1290   20.7090 H   0  0  0  0  0  0  0  0  0  0  0  0
   28.2420    8.3975   21.7294 H   0  0  0  0  0  0  0  0  0  0  0  0
   29.3709    6.2495   22.3565 H   0  0  0  0  0  0  0  0  0  0  0  0
   32.2522    8.4866   24.5843 H   0  0  0  0  0  0  0  0  0  0  0  0
   29.0116   13.5342   20.8822 H   0  0  0  0  0  0  0  0  0  0  0  0
   27.3948   15.1894   19.9548 H   0  0  0  0  0  0  0  0  0  0  0  0
   22.9573   13.8417   20.0085 H   0  0  0  0  0  0  0  0  0  0  0  0
   21.8810   12.4052   19.8151 H   0  0  0  0  0  0  0  0  0  0  0  0
  1  2  1  0
  2  3  1  0
  3  4  1  0
  3  5  2  0
  5  6  1  0
  6  7  1  6
  6  8  1  0
  8  9  2  0
  9 10  1  0
 10 11  1  0
 11 12  1  0
 12 13  2  0
 12 14  1  0
 14 15  2  0
 15 16  1  0
 16 17  2  0
 17 18  1  0
 17 19  1  0
 19 20  2  0
 10 21  2  0
 21 22  1  0
 22 23  2  0
 23 24  1  0
  6 25  1  0
 25 26  1  0
 26 27  2  0
 26 28  2  0
 26  2  1  0
 23  8  1  0
 20 14  1  0
  1 29  1  0
  1 30  1  0
  1 31  1  0
  4 32  1  0
  4 33  1  0
  7 34  1  0
  7 35  1  0
  7 36  1  0
  9 37  1  0
 11 38  1  0
 15 39  1  0
 16 40  1  0
 19 41  1  0
 21 42  1  0
 22 43  1  0
 25 44  1  0
 25 45  1  0
M  END
>  <meeko>  (4)
{"is_sidechain": false}

>  <source_group>  (4)
BACE1 canonical

>  <source_system>  (4)
BACE1_verubecestat

>  <source_run>  (4)
canonical_obabel_seed4409_ex32

>  <source_seed>  (4)
4409

>  <vina_pose_rank>  (4)
4

>  <vina_affinity_kcal_mol>  (4)
-8.3599999999999994

>  <vina_rmsd_to_crystal_angstrom>  (4)
3.1966000000000001

$$$$
BACE1_verubecestat__canonical_obabel_seed4409_ex32__pose05
     RDKit          3D

 45 47  0  0  0  0  0  0  0  0999 V2000
   26.9510   11.4500   21.6110 C   0  0  0  0  0  0  0  0  0  0  0  0
   25.7300   11.8340   20.8750 N   0  0  0  0  0  0  0  0  0  0  0  0
   25.1850   13.1370   20.9120 C   0  0  0  0  0  0  0  0  0  0  0  0
   25.9710   14.0480   21.5650 N   0  0  0  0  0  0  0  0  0  0  0  0
   24.0570   13.4640   20.3620 N   0  0  0  0  0  0  0  0  0  0  0  0
   23.1830   12.4640   19.7510 C   0  0  2  0  0  0  0  0  0  0  0  0
   22.2720   13.3080   18.8540 C   0  0  0  0  0  0  0  0  0  0  0  0
   22.3270   11.7470   20.7830 C   0  0  0  0  0  0  0  0  0  0  0  0
   22.3140   12.1550   22.1160 C   0  0  0  0  0  0  0  0  0  0  0  0
   21.5520   11.5220   23.0720 C   0  0  0  0  0  0  0  0  0  0  0  0
   21.6270   12.0340   24.3740 N   0  0  0  0  0  0  0  0  0  0  0  0
   20.6590   12.7250   25.0810 C   0  0  0  0  0  0  0  0  0  0  0  0
   19.5970   13.1210   24.6180 O   0  0  0  0  0  0  0  0  0  0  0  0
   20.9620   12.9500   26.5150 C   0  0  0  0  0  0  0  0  0  0  0  0
   21.5090   11.9300   27.2740 C   0  0  0  0  0  0  0  0  0  0  0  0
   21.7690   12.1940   28.6070 C   0  0  0  0  0  0  0  0  0  0  0  0
   21.4850   13.4400   29.1300 C   0  0  0  0  0  0  0  0  0  0  0  0
   21.7120   13.7400   30.4200 F   0  0  0  0  0  0  0  0  0  0  0  0
   20.9360   14.3880   28.2970 C   0  0  0  0  0  0  0  0  0  0  0  0
   20.6670   14.1600   27.0010 N   0  0  0  0  0  0  0  0  0  0  0  0
   20.7380   10.4500   22.7270 C   0  0  0  0  0  0  0  0  0  0  0  0
   20.7420   10.0290   21.4090 C   0  0  0  0  0  0  0  0  0  0  0  0
   21.5360   10.6530   20.4670 C   0  0  0  0  0  0  0  0  0  0  0  0
   21.5430   10.2020   19.1870 F   0  0  0  0  0  0  0  0  0  0  0  0
   23.9840   11.5590   18.8420 C   0  0  0  0  0  0  0  0  0  0  0  0
   25.1760   10.6310   19.7740 S   0  0  0  0  0  0  0  0  0  0  0  0
   26.2740   10.3400   18.8690 O   0  0  0  0  0  0  0  0  0  0  0  0
   24.5490    9.6600   20.6150 O   0  0  0  0  0  0  0  0  0  0  0  0
   26.7611   11.5097   22.6928 H   0  0  0  0  0  0  0  0  0  0  0  0
   27.2314   10.4203   21.3443 H   0  0  0  0  0  0  0  0  0  0  0  0
   27.7703   12.1339   21.3443 H   0  0  0  0  0  0  0  0  0  0  0  0
   25.6770   14.9840   21.6440 H   0  0  0  0  0  0  0  0  0  0  0  0
   26.8310   13.7680   21.9560 H   0  0  0  0  0  0  0  0  0  0  0  0
   21.6085   13.9227   19.4800 H   0  0  0  0  0  0  0  0  0  0  0  0
   22.8871   13.9625   18.2189 H   0  0  0  0  0  0  0  0  0  0  0  0
   21.6663   12.6448   18.2189 H   0  0  0  0  0  0  0  0  0  0  0  0
   22.9344   13.0129   22.4144 H   0  0  0  0  0  0  0  0  0  0  0  0
   22.4770   11.8810   24.8470 H   0  0  0  0  0  0  0  0  0  0  0  0
   21.7288   10.9462   26.8338 H   0  0  0  0  0  0  0  0  0  0  0  0
   22.2013   11.4125   29.2492 H   0  0  0  0  0  0  0  0  0  0  0  0
   20.7064   15.3802   28.7126 H   0  0  0  0  0  0  0  0  0  0  0  0
   20.1093    9.9510   23.4792 H   0  0  0  0  0  0  0  0  0  0  0  0
   20.1038    9.1854   21.1072 H   0  0  0  0  0  0  0  0  0  0  0  0
   23.3015   10.8623   18.3332 H   0  0  0  0  0  0  0  0  0  0  0  0
   24.5156   12.1785   18.1048 H   0  0  0  0  0  0  0  0  0  0  0  0
  1  2  1  0
  2  3  1  0
  3  4  1  0
  3  5  2  0
  5  6  1  0
  6  7  1  6
  6  8  1  0
  8  9  2  0
  9 10  1  0
 10 11  1  0
 11 12  1  0
 12 13  2  0
 12 14  1  0
 14 15  2  0
 15 16  1  0
 16 17  2  0
 17 18  1  0
 17 19  1  0
 19 20  2  0
 10 21  2  0
 21 22  1  0
 22 23  2  0
 23 24  1  0
  6 25  1  0
 25 26  1  0
 26 27  2  0
 26 28  2  0
 26  2  1  0
 23  8  1  0
 20 14  1  0
  1 29  1  0
  1 30  1  0
  1 31  1  0
  4 32  1  0
  4 33  1  0
  7 34  1  0
  7 35  1  0
  7 36  1  0
  9 37  1  0
 11 38  1  0
 15 39  1  0
 16 40  1  0
 19 41  1  0
 21 42  1  0
 22 43  1  0
 25 44  1  0
 25 45  1  0
M  END
>  <meeko>  (5)
{"is_sidechain": false}

>  <source_group>  (5)
BACE1 canonical

>  <source_system>  (5)
BACE1_verubecestat

>  <source_run>  (5)
canonical_obabel_seed4409_ex32

>  <source_seed>  (5)
4409

>  <vina_pose_rank>  (5)
5

>  <vina_affinity_kcal_mol>  (5)
-8.2959999999999994

>  <vina_rmsd_to_crystal_angstrom>  (5)
7.3578000000000001

$$$$
BACE1_verubecestat__canonical_obabel_seed4409_ex32__pose06
     RDKit          3D

 45 47  0  0  0  0  0  0  0  0999 V2000
   27.2050   15.7170   19.6140 C   0  0  0  0  0  0  0  0  0  0  0  0
   26.8210   14.2940   19.6970 N   0  0  0  0  0  0  0  0  0  0  0  0
   26.5180   13.5110   18.5610 C   0  0  0  0  0  0  0  0  0  0  0  0
   26.7580   14.1430   17.3710 N   0  0  0  0  0  0  0  0  0  0  0  0
   26.0750   12.2930   18.6220 N   0  0  0  0  0  0  0  0  0  0  0  0
   25.7320   11.6630   19.8960 C   0  0  2  0  0  0  0  0  0  0  0  0
   25.7300   10.1710   19.5500 C   0  0  0  0  0  0  0  0  0  0  0  0
   24.3440   12.0580   20.3730 C   0  0  0  0  0  0  0  0  0  0  0  0
   23.9720   11.9090   21.7090 C   0  0  0  0  0  0  0  0  0  0  0  0
   22.7220   12.2560   22.1680 C   0  0  0  0  0  0  0  0  0  0  0  0
   22.4780   12.0580   23.5330 N   0  0  0  0  0  0  0  0  0  0  0  0
   23.2060   12.5280   24.6110 C   0  0  0  0  0  0  0  0  0  0  0  0
   24.2840   13.1030   24.5360 O   0  0  0  0  0  0  0  0  0  0  0  0
   22.5750   12.3270   25.9380 C   0  0  0  0  0  0  0  0  0  0  0  0
   21.4970   11.4680   26.0680 C   0  0  0  0  0  0  0  0  0  0  0  0
   20.9450   11.3200   27.3280 C   0  0  0  0  0  0  0  0  0  0  0  0
   21.4770   12.0150   28.3980 C   0  0  0  0  0  0  0  0  0  0  0  0
   20.9690   11.9110   29.6370 F   0  0  0  0  0  0  0  0  0  0  0  0
   22.5460   12.8510   28.1680 C   0  0  0  0  0  0  0  0  0  0  0  0
   23.0990   13.0200   26.9550 N   0  0  0  0  0  0  0  0  0  0  0  0
   21.7800   12.7970   21.3020 C   0  0  0  0  0  0  0  0  0  0  0  0
   22.1300   12.9490   19.9730 C   0  0  0  0  0  0  0  0  0  0  0  0
   23.3770   12.5670   19.5190 C   0  0  0  0  0  0  0  0  0  0  0  0
   23.6860   12.7000   18.2040 F   0  0  0  0  0  0  0  0  0  0  0  0
   26.8420   11.8830   20.8990 C   0  0  0  0  0  0  0  0  0  0  0  0
   27.0230   13.6110   21.2640 S   0  0  0  0  0  0  0  0  0  0  0  0
   28.4090   13.8110   21.6460 O   0  0  0  0  0  0  0  0  0  0  0  0
   25.9060   14.1140   22.0020 O   0  0  0  0  0  0  0  0  0  0  0  0
   27.3156   16.1267   20.6288 H   0  0  0  0  0  0  0  0  0  0  0  0
   28.1599   15.8083   19.0757 H   0  0  0  0  0  0  0  0  0  0  0  0
   26.4257   16.2763   19.0757 H   0  0  0  0  0  0  0  0  0  0  0  0
   26.5770   13.6780   16.5220 H   0  0  0  0  0  0  0  0  0  0  0  0
   27.1120   15.0610   17.3630 H   0  0  0  0  0  0  0  0  0  0  0  0
   25.7292    9.5795   20.4774 H   0  0  0  0  0  0  0  0  0  0  0  0
   24.8315    9.9322   18.9620 H   0  0  0  0  0  0  0  0  0  0  0  0
   26.6278    9.9297   18.9620 H   0  0  0  0  0  0  0  0  0  0  0  0
   24.7038   11.4996   22.4210 H   0  0  0  0  0  0  0  0  0  0  0  0
   21.6860   11.5150   23.7530 H   0  0  0  0  0  0  0  0  0  0  0  0
   21.0942   10.9232   25.2014 H   0  0  0  0  0  0  0  0  0  0  0  0
   20.0849   10.6509   27.4780 H   0  0  0  0  0  0  0  0  0  0  0  0
   22.9679   13.4075   29.0179 H   0  0  0  0  0  0  0  0  0  0  0  0
   20.7848   13.0957   21.6630 H   0  0  0  0  0  0  0  0  0  0  0  0
   21.4048   13.3804   19.2673 H   0  0  0  0  0  0  0  0  0  0  0  0
   26.6039   11.3409   21.8261 H   0  0  0  0  0  0  0  0  0  0  0  0
   27.7846   11.5108   20.4713 H   0  0  0  0  0  0  0  0  0  0  0  0
  1  2  1  0
  2  3  1  0
  3  4  1  0
  3  5  2  0
  5  6  1  0
  6  7  1  6
  6  8  1  0
  8  9  2  0
  9 10  1  0
 10 11  1  0
 11 12  1  0
 12 13  2  0
 12 14  1  0
 14 15  2  0
 15 16  1  0
 16 17  2  0
 17 18  1  0
 17 19  1  0
 19 20  2  0
 10 21  2  0
 21 22  1  0
 22 23  2  0
 23 24  1  0
  6 25  1  0
 25 26  1  0
 26 27  2  0
 26 28  2  0
 26  2  1  0
 23  8  1  0
 20 14  1  0
  1 29  1  0
  1 30  1  0
  1 31  1  0
  4 32  1  0
  4 33  1  0
  7 34  1  0
  7 35  1  0
  7 36  1  0
  9 37  1  0
 11 38  1  0
 15 39  1  0
 16 40  1  0
 19 41  1  0
 21 42  1  0
 22 43  1  0
 25 44  1  0
 25 45  1  0
M  END
>  <meeko>  (6)
{"is_sidechain": false}

>  <source_group>  (6)
BACE1 canonical

>  <source_system>  (6)
BACE1_verubecestat

>  <source_run>  (6)
canonical_obabel_seed4409_ex32

>  <source_seed>  (6)
4409

>  <vina_pose_rank>  (6)
6

>  <vina_affinity_kcal_mol>  (6)
-8.2010000000000005

>  <vina_rmsd_to_crystal_angstrom>  (6)
7.1391999999999998

$$$$
BACE1_verubecestat__canonical_obabel_seed4409_ex32__pose07
     RDKit          3D

 45 47  0  0  0  0  0  0  0  0999 V2000
   28.5360   13.8170   24.2200 C   0  0  0  0  0  0  0  0  0  0  0  0
   28.0960   13.8740   22.8120 N   0  0  0  0  0  0  0  0  0  0  0  0
   27.2310   14.8740   22.3160 C   0  0  0  0  0  0  0  0  0  0  0  0
   26.9600   15.8700   23.2150 N   0  0  0  0  0  0  0  0  0  0  0  0
   26.7490   14.8780   21.1110 N   0  0  0  0  0  0  0  0  0  0  0  0
   26.9690   13.7630   20.1920 C   0  0  2  0  0  0  0  0  0  0  0  0
   26.6630   14.3800   18.8240 C   0  0  0  0  0  0  0  0  0  0  0  0
   26.0000   12.6180   20.4420 C   0  0  0  0  0  0  0  0  0  0  0  0
   25.0830   12.6670   21.4910 C   0  0  0  0  0  0  0  0  0  0  0  0
   24.1960   11.6440   21.7420 C   0  0  0  0  0  0  0  0  0  0  0  0
   23.3260   11.8200   22.8260 N   0  0  0  0  0  0  0  0  0  0  0  0
   22.0520   12.3590   22.8240 C   0  0  0  0  0  0  0  0  0  0  0  0
   21.5180   12.9010   21.8640 O   0  0  0  0  0  0  0  0  0  0  0  0
   21.3010   12.2150   24.0940 C   0  0  0  0  0  0  0  0  0  0  0  0
   20.0580   11.6080   24.0970 C   0  0  0  0  0  0  0  0  0  0  0  0
   19.4010   11.5010   25.3100 C   0  0  0  0  0  0  0  0  0  0  0  0
   19.9930   11.9910   26.4590 C   0  0  0  0  0  0  0  0  0  0  0  0
   19.3890   11.9190   27.6570 F   0  0  0  0  0  0  0  0  0  0  0  0
   21.2300   12.5840   26.3540 C   0  0  0  0  0  0  0  0  0  0  0  0
   21.8900   12.7070   25.1900 N   0  0  0  0  0  0  0  0  0  0  0  0
   24.1710   10.5190   20.9280 C   0  0  0  0  0  0  0  0  0  0  0  0
   25.0770   10.4520   19.8830 C   0  0  0  0  0  0  0  0  0  0  0  0
   25.9820   11.4710   19.6630 C   0  0  0  0  0  0  0  0  0  0  0  0
   26.8800   11.3670   18.6490 F   0  0  0  0  0  0  0  0  0  0  0  0
   28.4310   13.3750   20.1870 C   0  0  0  0  0  0  0  0  0  0  0  0
   28.9260   12.7730   21.7810 S   0  0  0  0  0  0  0  0  0  0  0  0
   30.3450   13.0520   21.9070 O   0  0  0  0  0  0  0  0  0  0  0  0
   28.3260   11.5090   22.0770 O   0  0  0  0  0  0  0  0  0  0  0  0
   27.6643   13.9299   24.8814 H   0  0  0  0  0  0  0  0  0  0  0  0
   29.0204   12.8486   24.4139 H   0  0  0  0  0  0  0  0  0  0  0  0
   29.2511   14.6300   24.4139 H   0  0  0  0  0  0  0  0  0  0  0  0
   26.3660   16.6140   22.9610 H   0  0  0  0  0  0  0  0  0  0  0  0
   27.3580   15.8440   24.1150 H   0  0  0  0  0  0  0  0  0  0  0  0
   26.1782   15.3576   18.9629 H   0  0  0  0  0  0  0  0  0  0  0  0
   27.6002   14.5118   18.2633 H   0  0  0  0  0  0  0  0  0  0  0  0
   25.9909   13.7137   18.2633 H   0  0  0  0  0  0  0  0  0  0  0  0
   25.0675   13.5542   22.1411 H   0  0  0  0  0  0  0  0  0  0  0  0
   23.6650   11.5210   23.7010 H   0  0  0  0  0  0  0  0  0  0  0  0
   19.6084   11.2245   23.1692 H   0  0  0  0  0  0  0  0  0  0  0  0
   18.4096   11.0270   25.3599 H   0  0  0  0  0  0  0  0  0  0  0  0
   21.7015   12.9764   27.2671 H   0  0  0  0  0  0  0  0  0  0  0  0
   23.4529    9.7054   21.1081 H   0  0  0  0  0  0  0  0  0  0  0  0
   25.0756    9.5749   19.2191 H   0  0  0  0  0  0  0  0  0  0  0  0
   28.5927   12.5866   19.4372 H   0  0  0  0  0  0  0  0  0  0  0  0
   29.0317   14.2635   19.9425 H   0  0  0  0  0  0  0  0  0  0  0  0
  1  2  1  0
  2  3  1  0
  3  4  1  0
  3  5  2  0
  5  6  1  0
  6  7  1  6
  6  8  1  0
  8  9  2  0
  9 10  1  0
 10 11  1  0
 11 12  1  0
 12 13  2  0
 12 14  1  0
 14 15  2  0
 15 16  1  0
 16 17  2  0
 17 18  1  0
 17 19  1  0
 19 20  2  0
 10 21  2  0
 21 22  1  0
 22 23  2  0
 23 24  1  0
  6 25  1  0
 25 26  1  0
 26 27  2  0
 26 28  2  0
 26  2  1  0
 23  8  1  0
 20 14  1  0
  1 29  1  0
  1 30  1  0
  1 31  1  0
  4 32  1  0
  4 33  1  0
  7 34  1  0
  7 35  1  0
  7 36  1  0
  9 37  1  0
 11 38  1  0
 15 39  1  0
 16 40  1  0
 19 41  1  0
 21 42  1  0
 22 43  1  0
 25 44  1  0
 25 45  1  0
M  END
>  <meeko>  (7)
{"is_sidechain": false}

>  <source_group>  (7)
BACE1 canonical

>  <source_system>  (7)
BACE1_verubecestat

>  <source_run>  (7)
canonical_obabel_seed4409_ex32

>  <source_seed>  (7)
4409

>  <vina_pose_rank>  (7)
7

>  <vina_affinity_kcal_mol>  (7)
-8.0020000000000007

>  <vina_rmsd_to_crystal_angstrom>  (7)
7.5941000000000001

$$$$
BACE1_verubecestat__canonical_obabel_seed4409_ex32__pose08
     RDKit          3D

 45 47  0  0  0  0  0  0  0  0999 V2000
   21.8600   11.9920   29.0340 C   0  0  0  0  0  0  0  0  0  0  0  0
   20.8160   12.4770   28.1100 N   0  0  0  0  0  0  0  0  0  0  0  0
   19.4580   12.1050   28.2200 C   0  0  0  0  0  0  0  0  0  0  0  0
   19.1690   11.3800   29.3440 N   0  0  0  0  0  0  0  0  0  0  0  0
   18.5480   12.4340   27.3560 N   0  0  0  0  0  0  0  0  0  0  0  0
   18.8830   13.1260   26.1120 C   0  0  2  0  0  0  0  0  0  0  0  0
   17.5380   13.7110   25.6720 C   0  0  0  0  0  0  0  0  0  0  0  0
   19.3760   12.1670   25.0400 C   0  0  0  0  0  0  0  0  0  0  0  0
   20.2530   12.5920   24.0430 C   0  0  0  0  0  0  0  0  0  0  0  0
   20.7130   11.7460   23.0590 C   0  0  0  0  0  0  0  0  0  0  0  0
   21.5920   12.2980   22.1180 N   0  0  0  0  0  0  0  0  0  0  0  0
   22.9750   12.3340   22.1550 C   0  0  0  0  0  0  0  0  0  0  0  0
   23.6630   11.9900   23.1070 O   0  0  0  0  0  0  0  0  0  0  0  0
   23.6300   12.8000   20.9080 C   0  0  0  0  0  0  0  0  0  0  0  0
   22.8840   12.9570   19.7530 C   0  0  0  0  0  0  0  0  0  0  0  0
   23.5460   13.3920   18.6180 C   0  0  0  0  0  0  0  0  0  0  0  0
   24.9010   13.6550   18.6710 C   0  0  0  0  0  0  0  0  0  0  0  0
   25.5880   14.0700   17.5930 F   0  0  0  0  0  0  0  0  0  0  0  0
   25.5580   13.4630   19.8650 C   0  0  0  0  0  0  0  0  0  0  0  0
   24.9440   13.0360   20.9810 N   0  0  0  0  0  0  0  0  0  0  0  0
   20.3280   10.4120   23.0410 C   0  0  0  0  0  0  0  0  0  0  0  0
   19.4550    9.9740   24.0210 C   0  0  0  0  0  0  0  0  0  0  0  0
   18.9770   10.8410   24.9840 C   0  0  0  0  0  0  0  0  0  0  0  0
   18.0980   10.3930   25.9170 F   0  0  0  0  0  0  0  0  0  0  0  0
   19.8010   14.2940   26.4000 C   0  0  0  0  0  0  0  0  0  0  0  0
   21.3510   13.7260   27.0530 S   0  0  0  0  0  0  0  0  0  0  0  0
   21.8680   14.8000   27.8830 O   0  0  0  0  0  0  0  0  0  0  0  0
   22.1180   13.0330   26.0650 O   0  0  0  0  0  0  0  0  0  0  0  0
   21.5306   12.1450   30.0723 H   0  0  0  0  0  0  0  0  0  0  0  0
   22.0353   10.9202   28.8591 H   0  0  0  0  0  0  0  0  0  0  0  0
   22.7921   12.5493   28.8591 H   0  0  0  0  0  0  0  0  0  0  0  0
   18.2480   11.0740   29.5100 H   0  0  0  0  0  0  0  0  0  0  0  0
   19.8830   11.1640   29.9880 H   0  0  0  0  0  0  0  0  0  0  0  0
   16.9427   13.9699   26.5600 H   0  0  0  0  0  0  0  0  0  0  0  0
   17.7108   14.6153   25.0700 H   0  0  0  0  0  0  0  0  0  0  0  0
   16.9943   12.9680   25.0700 H   0  0  0  0  0  0  0  0  0  0  0  0
   20.5890   13.6394   24.0425 H   0  0  0  0  0  0  0  0  0  0  0  0
   21.1730   12.7130   21.3300 H   0  0  0  0  0  0  0  0  0  0  0  0
   21.8049   12.7440   19.7376 H   0  0  0  0  0  0  0  0  0  0  0  0
   22.9944   13.5279   17.6760 H   0  0  0  0  0  0  0  0  0  0  0  0
   26.6377   13.6691   19.9076 H   0  0  0  0  0  0  0  0  0  0  0  0
   20.7058    9.7239   22.2705 H   0  0  0  0  0  0  0  0  0  0  0  0
   19.1373    8.9209   24.0333 H   0  0  0  0  0  0  0  0  0  0  0  0
   19.9832   14.8487   25.4678 H   0  0  0  0  0  0  0  0  0  0  0  0
   19.3210   14.9466   27.1442 H   0  0  0  0  0  0  0  0  0  0  0  0
  1  2  1  0
  2  3  1  0
  3  4  1  0
  3  5  2  0
  5  6  1  0
  6  7  1  6
  6  8  1  0
  8  9  2  0
  9 10  1  0
 10 11  1  0
 11 12  1  0
 12 13  2  0
 12 14  1  0
 14 15  2  0
 15 16  1  0
 16 17  2  0
 17 18  1  0
 17 19  1  0
 19 20  2  0
 10 21  2  0
 21 22  1  0
 22 23  2  0
 23 24  1  0
  6 25  1  0
 25 26  1  0
 26 27  2  0
 26 28  2  0
 26  2  1  0
 23  8  1  0
 20 14  1  0
  1 29  1  0
  1 30  1  0
  1 31  1  0
  4 32  1  0
  4 33  1  0
  7 34  1  0
  7 35  1  0
  7 36  1  0
  9 37  1  0
 11 38  1  0
 15 39  1  0
 16 40  1  0
 19 41  1  0
 21 42  1  0
 22 43  1  0
 25 44  1  0
 25 45  1  0
M  END
>  <meeko>  (8)
{"is_sidechain": false}

>  <source_group>  (8)
BACE1 canonical

>  <source_system>  (8)
BACE1_verubecestat

>  <source_run>  (8)
canonical_obabel_seed4409_ex32

>  <source_seed>  (8)
4409

>  <vina_pose_rank>  (8)
8

>  <vina_affinity_kcal_mol>  (8)
-7.9859999999999998

>  <vina_rmsd_to_crystal_angstrom>  (8)
6.3274999999999997

$$$$
BACE1_verubecestat__canonical_obabel_seed4409_ex32__pose09
     RDKit          3D

 45 47  0  0  0  0  0  0  0  0999 V2000
   21.1940    9.5110   23.3680 C   0  0  0  0  0  0  0  0  0  0  0  0
   21.5610   10.5070   22.3410 N   0  0  0  0  0  0  0  0  0  0  0  0
   21.5600   10.2220   20.9580 C   0  0  0  0  0  0  0  0  0  0  0  0
   21.0440    8.9930   20.6440 N   0  0  0  0  0  0  0  0  0  0  0  0
   21.9830   11.0480   20.0510 N   0  0  0  0  0  0  0  0  0  0  0  0
   22.6180   12.3160   20.4030 C   0  0  2  0  0  0  0  0  0  0  0  0
   22.5090   13.1260   19.1080 C   0  0  0  0  0  0  0  0  0  0  0  0
   24.0890   12.1410   20.7490 C   0  0  0  0  0  0  0  0  0  0  0  0
   24.6970   12.9290   21.7260 C   0  0  0  0  0  0  0  0  0  0  0  0
   26.0260   12.7940   22.0570 C   0  0  0  0  0  0  0  0  0  0  0  0
   26.5130   13.6460   23.0570 N   0  0  0  0  0  0  0  0  0  0  0  0
   26.2830   13.5880   24.4200 C   0  0  0  0  0  0  0  0  0  0  0  0
   25.4900   12.8340   24.9690 O   0  0  0  0  0  0  0  0  0  0  0  0
   27.1090   14.5040   25.2420 C   0  0  0  0  0  0  0  0  0  0  0  0
   26.5560   15.6680   25.7480 C   0  0  0  0  0  0  0  0  0  0  0  0
   27.3730   16.4870   26.5060 C   0  0  0  0  0  0  0  0  0  0  0  0
   28.6870   16.1270   26.7350 C   0  0  0  0  0  0  0  0  0  0  0  0
   29.5200   16.8960   27.4570 F   0  0  0  0  0  0  0  0  0  0  0  0
   29.1480   14.9530   26.1840 C   0  0  0  0  0  0  0  0  0  0  0  0
   28.3810   14.1400   25.4390 N   0  0  0  0  0  0  0  0  0  0  0  0
   26.8130   11.8350   21.4330 C   0  0  0  0  0  0  0  0  0  0  0  0
   26.2270   11.0460   20.4590 C   0  0  0  0  0  0  0  0  0  0  0  0
   24.9010   11.2140   20.1140 C   0  0  0  0  0  0  0  0  0  0  0  0
   24.3570   10.4470   19.1340 F   0  0  0  0  0  0  0  0  0  0  0  0
   21.7960   13.0370   21.4480 C   0  0  0  0  0  0  0  0  0  0  0  0
   21.7420   12.1040   22.9570 S   0  0  0  0  0  0  0  0  0  0  0  0
   20.4970   12.4540   23.6160 O   0  0  0  0  0  0  0  0  0  0  0  0
   23.0150   12.0790   23.6060 O   0  0  0  0  0  0  0  0  0  0  0  0
   21.3522    9.9404   24.3683 H   0  0  0  0  0  0  0  0  0  0  0  0
   20.1355    9.2359   23.2503 H   0  0  0  0  0  0  0  0  0  0  0  0
   21.8210    8.6149   23.2503 H   0  0  0  0  0  0  0  0  0  0  0  0
   21.0010    8.7030   19.7040 H   0  0  0  0  0  0  0  0  0  0  0  0
   20.7160    8.4000   21.3580 H   0  0  0  0  0  0  0  0  0  0  0  0
   22.3659   14.1891   19.3514 H   0  0  0  0  0  0  0  0  0  0  0  0
   23.4315   13.0051   18.5212 H   0  0  0  0  0  0  0  0  0  0  0  0
   21.6513   12.7656   18.5212 H   0  0  0  0  0  0  0  0  0  0  0  0
   24.0934   13.6846   22.2502 H   0  0  0  0  0  0  0  0  0  0  0  0
   27.0940   14.3800   22.7510 H   0  0  0  0  0  0  0  0  0  0  0  0
   25.5058   15.9317   25.5543 H   0  0  0  0  0  0  0  0  0  0  0  0
   26.9772   17.4235   26.9259 H   0  0  0  0  0  0  0  0  0  0  0  0
   30.1950   14.6667   26.3623 H   0  0  0  0  0  0  0  0  0  0  0  0
   27.8711   11.7064   21.7050 H   0  0  0  0  0  0  0  0  0  0  0  0
   26.8258   10.2745   19.9528 H   0  0  0  0  0  0  0  0  0  0  0  0
   22.2473   14.0202   21.6473 H   0  0  0  0  0  0  0  0  0  0  0  0
   20.7701   13.1576   21.0698 H   0  0  0  0  0  0  0  0  0  0  0  0
  1  2  1  0
  2  3  1  0
  3  4  1  0
  3  5  2  0
  5  6  1  0
  6  7  1  6
  6  8  1  0
  8  9  2  0
  9 10  1  0
 10 11  1  0
 11 12  1  0
 12 13  2  0
 12 14  1  0
 14 15  2  0
 15 16  1  0
 16 17  2  0
 17 18  1  0
 17 19  1  0
 19 20  2  0
 10 21  2  0
 21 22  1  0
 22 23  2  0
 23 24  1  0
  6 25  1  0
 25 26  1  0
 26 27  2  0
 26 28  2  0
 26  2  1  0
 23  8  1  0
 20 14  1  0
  1 29  1  0
  1 30  1  0
  1 31  1  0
  4 32  1  0
  4 33  1  0
  7 34  1  0
  7 35  1  0
  7 36  1  0
  9 37  1  0
 11 38  1  0
 15 39  1  0
 16 40  1  0
 19 41  1  0
 21 42  1  0
 22 43  1  0
 25 44  1  0
 25 45  1  0
M  END
>  <meeko>  (9)
{"is_sidechain": false}

>  <source_group>  (9)
BACE1 canonical

>  <source_system>  (9)
BACE1_verubecestat

>  <source_run>  (9)
canonical_obabel_seed4409_ex32

>  <source_seed>  (9)
4409

>  <vina_pose_rank>  (9)
9

>  <vina_affinity_kcal_mol>  (9)
-7.9480000000000004

>  <vina_rmsd_to_crystal_angstrom>  (9)
4.8152999999999997

$$$$
BACE1_verubecestat__canonical_obabel_seed4409_ex32__pose10
     RDKit          3D

 45 47  0  0  0  0  0  0  0  0999 V2000
   21.7800   12.8200   21.8940 C   0  0  0  0  0  0  0  0  0  0  0  0
   22.8510   12.1200   21.1570 N   0  0  0  0  0  0  0  0  0  0  0  0
   23.6440   11.1030   21.7330 C   0  0  0  0  0  0  0  0  0  0  0  0
   23.2340   10.7190   22.9810 N   0  0  0  0  0  0  0  0  0  0  0  0
   24.6580   10.5540   21.1370 N   0  0  0  0  0  0  0  0  0  0  0  0
   25.1440   11.0370   19.8460 C   0  0  2  0  0  0  0  0  0  0  0  0
   25.9760    9.8600   19.3300 C   0  0  0  0  0  0  0  0  0  0  0  0
   26.0480   12.2510   19.9940 C   0  0  0  0  0  0  0  0  0  0  0  0
   26.3420   12.7810   21.2500 C   0  0  0  0  0  0  0  0  0  0  0  0
   27.1550   13.8800   21.4130 C   0  0  0  0  0  0  0  0  0  0  0  0
   27.3710   14.3100   22.7290 N   0  0  0  0  0  0  0  0  0  0  0  0
   28.2810   13.8250   23.6500 C   0  0  0  0  0  0  0  0  0  0  0  0
   28.9750   12.8280   23.4980 O   0  0  0  0  0  0  0  0  0  0  0  0
   28.4170   14.6280   24.8900 C   0  0  0  0  0  0  0  0  0  0  0  0
   27.3430   15.3660   25.3560 C   0  0  0  0  0  0  0  0  0  0  0  0
   27.5250   16.0990   26.5160 C   0  0  0  0  0  0  0  0  0  0  0  0
   28.7460   16.0700   27.1620 C   0  0  0  0  0  0  0  0  0  0  0  0
   28.9730   16.7720   28.2850 F   0  0  0  0  0  0  0  0  0  0  0  0
   29.7560   15.3110   26.6180 C   0  0  0  0  0  0  0  0  0  0  0  0
   29.6110   14.5940   25.4910 N   0  0  0  0  0  0  0  0  0  0  0  0
   27.7380   14.4930   20.3120 C   0  0  0  0  0  0  0  0  0  0  0  0
   27.4550   13.9820   19.0570 C   0  0  0  0  0  0  0  0  0  0  0  0
   26.6120   12.8990   18.9060 C   0  0  0  0  0  0  0  0  0  0  0  0
   26.3270   12.4360   17.6620 F   0  0  0  0  0  0  0  0  0  0  0  0
   23.9860   11.2140   18.8880 C   0  0  0  0  0  0  0  0  0  0  0  0
   22.8770   12.4710   19.4720 S   0  0  0  0  0  0  0  0  0  0  0  0
   21.5650   12.1420   18.9440 O   0  0  0  0  0  0  0  0  0  0  0  0
   23.4680   13.7700   19.4020 O   0  0  0  0  0  0  0  0  0  0  0  0
   21.9474   12.7106   22.9757 H   0  0  0  0  0  0  0  0  0  0  0  0
   21.7888   13.8872   21.6277 H   0  0  0  0  0  0  0  0  0  0  0  0
   20.8060   12.3836   21.6277 H   0  0  0  0  0  0  0  0  0  0  0  0
   23.7250   10.0150   23.4650 H   0  0  0  0  0  0  0  0  0  0  0  0
   22.4490   11.1450   23.3950 H   0  0  0  0  0  0  0  0  0  0  0  0
   26.3770    9.2927   20.1828 H   0  0  0  0  0  0  0  0  0  0  0  0
   25.3410    9.2024   18.7182 H   0  0  0  0  0  0  0  0  0  0  0  0
   26.8078   10.2393   18.7182 H   0  0  0  0  0  0  0  0  0  0  0  0
   25.9091   12.3042   22.1418 H   0  0  0  0  0  0  0  0  0  0  0  0
   26.8020   15.0530   23.0360 H   0  0  0  0  0  0  0  0  0  0  0  0
   26.3801   15.3699   24.8241 H   0  0  0  0  0  0  0  0  0  0  0  0
   26.7001   16.7027   26.9223 H   0  0  0  0  0  0  0  0  0  0  0  0
   30.7292   15.2900   27.1303 H   0  0  0  0  0  0  0  0  0  0  0  0
   28.4051   15.3592   20.4334 H   0  0  0  0  0  0  0  0  0  0  0  0
   27.9079   14.4451   18.1679 H   0  0  0  0  0  0  0  0  0  0  0  0
   24.3748   11.5053   17.9011 H   0  0  0  0  0  0  0  0  0  0  0  0
   23.4374   10.2633   18.8160 H   0  0  0  0  0  0  0  0  0  0  0  0
  1  2  1  0
  2  3  1  0
  3  4  1  0
  3  5  2  0
  5  6  1  0
  6  7  1  6
  6  8  1  0
  8  9  2  0
  9 10  1  0
 10 11  1  0
 11 12  1  0
 12 13  2  0
 12 14  1  0
 14 15  2  0
 15 16  1  0
 16 17  2  0
 17 18  1  0
 17 19  1  0
 19 20  2  0
 10 21  2  0
 21 22  1  0
 22 23  2  0
 23 24  1  0
  6 25  1  0
 25 26  1  0
 26 27  2  0
 26 28  2  0
 26  2  1  0
 23  8  1  0
 20 14  1  0
  1 29  1  0
  1 30  1  0
  1 31  1  0
  4 32  1  0
  4 33  1  0
  7 34  1  0
  7 35  1  0
  7 36  1  0
  9 37  1  0
 11 38  1  0
 15 39  1  0
 16 40  1  0
 19 41  1  0
 21 42  1  0
 22 43  1  0
 25 44  1  0
 25 45  1  0
M  END
>  <meeko>  (10)
{"is_sidechain": false}

>  <source_group>  (10)
BACE1 canonical

>  <source_system>  (10)
BACE1_verubecestat

>  <source_run>  (10)
canonical_obabel_seed4409_ex32

>  <source_seed>  (10)
4409

>  <vina_pose_rank>  (10)
10

>  <vina_affinity_kcal_mol>  (10)
-7.8700000000000001

>  <vina_rmsd_to_crystal_angstrom>  (10)
5.3053999999999997

$$$$
BACE1_verubecestat__canonical_obabel_seed4409_ex32__pose11
     RDKit          3D

 45 47  0  0  0  0  0  0  0  0999 V2000
   27.3700   11.4590   19.9030 C   0  0  0  0  0  0  0  0  0  0  0  0
   25.9350   11.8050   19.9420 N   0  0  0  0  0  0  0  0  0  0  0  0
   25.4600   13.1320   19.8490 C   0  0  0  0  0  0  0  0  0  0  0  0
   26.4330   14.0520   19.5660 N   0  0  0  0  0  0  0  0  0  0  0  0
   24.2140   13.4630   19.9900 N   0  0  0  0  0  0  0  0  0  0  0  0
   23.1990   12.4870   20.3850 C   0  0  2  0  0  0  0  0  0  0  0  0
   21.8910   13.1650   19.9700 C   0  0  0  0  0  0  0  0  0  0  0  0
   23.1800   12.2620   21.8890 C   0  0  0  0  0  0  0  0  0  0  0  0
   24.1260   12.8600   22.7190 C   0  0  0  0  0  0  0  0  0  0  0  0
   24.1340   12.6710   24.0830 C   0  0  0  0  0  0  0  0  0  0  0  0
   25.1380   13.3320   24.8020 N   0  0  0  0  0  0  0  0  0  0  0  0
   26.4660   13.5080   24.4560 C   0  0  0  0  0  0  0  0  0  0  0  0
   27.0190   12.9880   23.4950 O   0  0  0  0  0  0  0  0  0  0  0  0
   27.2300   14.4350   25.3260 C   0  0  0  0  0  0  0  0  0  0  0  0
   26.6090   15.5490   25.8620 C   0  0  0  0  0  0  0  0  0  0  0  0
   27.3690   16.3810   26.6650 C   0  0  0  0  0  0  0  0  0  0  0  0
   28.6960   16.0800   26.9060 C   0  0  0  0  0  0  0  0  0  0  0  0
   29.4750   16.8620   27.6710 F   0  0  0  0  0  0  0  0  0  0  0  0
   29.2260   14.9510   26.3230 C   0  0  0  0  0  0  0  0  0  0  0  0
   28.5150   14.1290   25.5350 N   0  0  0  0  0  0  0  0  0  0  0  0
   23.1660   11.8800   24.6890 C   0  0  0  0  0  0  0  0  0  0  0  0
   22.2200   11.2760   23.8800 C   0  0  0  0  0  0  0  0  0  0  0  0
   22.2440   11.4480   22.5100 C   0  0  0  0  0  0  0  0  0  0  0  0
   21.3220   10.8200   21.7360 F   0  0  0  0  0  0  0  0  0  0  0  0
   23.3330   11.2330   19.5510 C   0  0  0  0  0  0  0  0  0  0  0  0
   24.8910   10.4390   19.8560 S   0  0  0  0  0  0  0  0  0  0  0  0
   25.2300    9.7140   18.6450 O   0  0  0  0  0  0  0  0  0  0  0  0
   24.9490    9.8800   21.1710 O   0  0  0  0  0  0  0  0  0  0  0  0
   27.7530   11.3667   20.9300 H   0  0  0  0  0  0  0  0  0  0  0  0
   27.5025   10.5032   19.3750 H   0  0  0  0  0  0  0  0  0  0  0  0
   27.9235   12.2494   19.3750 H   0  0  0  0  0  0  0  0  0  0  0  0
   26.2000   15.0040   19.4800 H   0  0  0  0  0  0  0  0  0  0  0  0
   27.3670   13.7610   19.4470 H   0  0  0  0  0  0  0  0  0  0  0  0
   21.3280   13.4568   20.8688 H   0  0  0  0  0  0  0  0  0  0  0  0
   22.1158   14.0601   19.3715 H   0  0  0  0  0  0  0  0  0  0  0  0
   21.2892   12.4653   19.3715 H   0  0  0  0  0  0  0  0  0  0  0  0
   24.8939   13.5062   22.2686 H   0  0  0  0  0  0  0  0  0  0  0  0
   24.8640   13.7210   25.6640 H   0  0  0  0  0  0  0  0  0  0  0  0
   25.5501   15.7654   25.6574 H   0  0  0  0  0  0  0  0  0  0  0  0
   26.9179   17.2799   27.1105 H   0  0  0  0  0  0  0  0  0  0  0  0
   30.2827   14.7110   26.5119 H   0  0  0  0  0  0  0  0  0  0  0  0
   23.1521   11.7381   25.7797 H   0  0  0  0  0  0  0  0  0  0  0  0
   21.4379   10.6501   24.3344 H   0  0  0  0  0  0  0  0  0  0  0  0
   22.5183   10.5400   19.8078 H   0  0  0  0  0  0  0  0  0  0  0  0
   23.2791   11.5086   18.4874 H   0  0  0  0  0  0  0  0  0  0  0  0
  1  2  1  0
  2  3  1  0
  3  4  1  0
  3  5  2  0
  5  6  1  0
  6  7  1  6
  6  8  1  0
  8  9  2  0
  9 10  1  0
 10 11  1  0
 11 12  1  0
 12 13  2  0
 12 14  1  0
 14 15  2  0
 15 16  1  0
 16 17  2  0
 17 18  1  0
 17 19  1  0
 19 20  2  0
 10 21  2  0
 21 22  1  0
 22 23  2  0
 23 24  1  0
  6 25  1  0
 25 26  1  0
 26 27  2  0
 26 28  2  0
 26  2  1  0
 23  8  1  0
 20 14  1  0
  1 29  1  0
  1 30  1  0
  1 31  1  0
  4 32  1  0
  4 33  1  0
  7 34  1  0
  7 35  1  0
  7 36  1  0
  9 37  1  0
 11 38  1  0
 15 39  1  0
 16 40  1  0
 19 41  1  0
 21 42  1  0
 22 43  1  0
 25 44  1  0
 25 45  1  0
M  END
>  <meeko>  (11)
{"is_sidechain": false}

>  <source_group>  (11)
BACE1 canonical

>  <source_system>  (11)
BACE1_verubecestat

>  <source_run>  (11)
canonical_obabel_seed4409_ex32

>  <source_seed>  (11)
4409

>  <vina_pose_rank>  (11)
11

>  <vina_affinity_kcal_mol>  (11)
-7.4000000000000004

>  <vina_rmsd_to_crystal_angstrom>  (11)
5.8598999999999997

$$$$
BACE1_verubecestat__canonical_obabel_seed4409_ex32__pose12
     RDKit          3D

 45 47  0  0  0  0  0  0  0  0999 V2000
   28.3400   14.9580   25.8190 C   0  0  0  0  0  0  0  0  0  0  0  0
   28.2200   15.2190   24.3710 N   0  0  0  0  0  0  0  0  0  0  0  0
   27.2790   16.1210   23.8270 C   0  0  0  0  0  0  0  0  0  0  0  0
   26.5930   16.8420   24.7670 N   0  0  0  0  0  0  0  0  0  0  0  0
   27.0850   16.2810   22.5540 N   0  0  0  0  0  0  0  0  0  0  0  0
   27.7540   15.4390   21.5640 C   0  0  2  0  0  0  0  0  0  0  0  0
   27.6230   16.2550   20.2750 C   0  0  0  0  0  0  0  0  0  0  0  0
   27.0450   14.1070   21.3760 C   0  0  0  0  0  0  0  0  0  0  0  0
   25.9190   13.7780   22.1280 C   0  0  0  0  0  0  0  0  0  0  0  0
   25.2590   12.5790   21.9810 C   0  0  0  0  0  0  0  0  0  0  0  0
   24.1390   12.3750   22.7980 N   0  0  0  0  0  0  0  0  0  0  0  0
   22.8020   12.5050   22.4670 C   0  0  0  0  0  0  0  0  0  0  0  0
   22.3780   12.9570   21.4110 O   0  0  0  0  0  0  0  0  0  0  0  0
   21.8460   12.0140   23.4890 C   0  0  0  0  0  0  0  0  0  0  0  0
   20.9100   11.0510   23.1530 C   0  0  0  0  0  0  0  0  0  0  0  0
   20.0410   10.6310   24.1450 C   0  0  0  0  0  0  0  0  0  0  0  0
   20.1340   11.1690   25.4140 C   0  0  0  0  0  0  0  0  0  0  0  0
   19.3070   10.7980   26.4070 F   0  0  0  0  0  0  0  0  0  0  0  0
   21.0950   12.1260   25.6500 C   0  0  0  0  0  0  0  0  0  0  0  0
   21.9470   12.5580   24.7060 N   0  0  0  0  0  0  0  0  0  0  0  0
   25.6900   11.6500   21.0430 C   0  0  0  0  0  0  0  0  0  0  0  0
   26.8090   11.9570   20.2890 C   0  0  0  0  0  0  0  0  0  0  0  0
   27.4790   13.1510   20.4700 C   0  0  0  0  0  0  0  0  0  0  0  0
   28.5920   13.4160   19.7380 F   0  0  0  0  0  0  0  0  0  0  0  0
   29.2300   15.3400   21.8770 C   0  0  0  0  0  0  0  0  0  0  0  0
   29.4880   14.5270   23.4340 S   0  0  0  0  0  0  0  0  0  0  0  0
   30.7400   15.0350   23.9640 O   0  0  0  0  0  0  0  0  0  0  0  0
   29.1460   13.1410   23.3680 O   0  0  0  0  0  0  0  0  0  0  0  0
   27.9449   15.8174   26.3805 H   0  0  0  0  0  0  0  0  0  0  0  0
   27.7663   14.0559   26.0778 H   0  0  0  0  0  0  0  0  0  0  0  0
   29.3983   14.8062   26.0778 H   0  0  0  0  0  0  0  0  0  0  0  0
   25.9140   17.4980   24.4860 H   0  0  0  0  0  0  0  0  0  0  0  0
   26.7790   16.7070   25.7240 H   0  0  0  0  0  0  0  0  0  0  0  0
   27.4532   17.3124   20.5261 H   0  0  0  0  0  0  0  0  0  0  0  0
   28.5476   16.1618   19.6864 H   0  0  0  0  0  0  0  0  0  0  0  0
   26.7740   15.8770   19.6864 H   0  0  0  0  0  0  0  0  0  0  0  0
   25.5440   14.5026   22.8658 H   0  0  0  0  0  0  0  0  0  0  0  0
   24.3280   12.1030   23.7250 H   0  0  0  0  0  0  0  0  0  0  0  0
   20.8588   10.6352   22.1359 H   0  0  0  0  0  0  0  0  0  0  0  0
   19.2779    9.8704   23.9234 H   0  0  0  0  0  0  0  0  0  0  0  0
   21.1685   12.5572   26.6593 H   0  0  0  0  0  0  0  0  0  0  0  0
   25.1573   10.6977   20.9034 H   0  0  0  0  0  0  0  0  0  0  0  0
   27.1695   11.2409   19.5359 H   0  0  0  0  0  0  0  0  0  0  0  0
   29.7299   14.7661   21.0828 H   0  0  0  0  0  0  0  0  0  0  0  0
   29.6482   16.3558   21.9348 H   0  0  0  0  0  0  0  0  0  0  0  0
  1  2  1  0
  2  3  1  0
  3  4  1  0
  3  5  2  0
  5  6  1  0
  6  7  1  6
  6  8  1  0
  8  9  2  0
  9 10  1  0
 10 11  1  0
 11 12  1  0
 12 13  2  0
 12 14  1  0
 14 15  2  0
 15 16  1  0
 16 17  2  0
 17 18  1  0
 17 19  1  0
 19 20  2  0
 10 21  2  0
 21 22  1  0
 22 23  2  0
 23 24  1  0
  6 25  1  0
 25 26  1  0
 26 27  2  0
 26 28  2  0
 26  2  1  0
 23  8  1  0
 20 14  1  0
  1 29  1  0
  1 30  1  0
  1 31  1  0
  4 32  1  0
  4 33  1  0
  7 34  1  0
  7 35  1  0
  7 36  1  0
  9 37  1  0
 11 38  1  0
 15 39  1  0
 16 40  1  0
 19 41  1  0
 21 42  1  0
 22 43  1  0
 25 44  1  0
 25 45  1  0
M  END
>  <meeko>  (12)
{"is_sidechain": false}

>  <source_group>  (12)
BACE1 canonical

>  <source_system>  (12)
BACE1_verubecestat

>  <source_run>  (12)
canonical_obabel_seed4409_ex32

>  <source_seed>  (12)
4409

>  <vina_pose_rank>  (12)
12

>  <vina_affinity_kcal_mol>  (12)
-7.3849999999999998

>  <vina_rmsd_to_crystal_angstrom>  (12)
7.8857999999999997

$$$$
BACE1_verubecestat__canonical_obabel_seed4409_ex32__pose13
     RDKit          3D

 45 47  0  0  0  0  0  0  0  0999 V2000
   20.0950   13.5450   27.4040 C   0  0  0  0  0  0  0  0  0  0  0  0
   20.3300   12.4290   26.4660 N   0  0  0  0  0  0  0  0  0  0  0  0
   21.1270   11.3080   26.7880 C   0  0  0  0  0  0  0  0  0  0  0  0
   21.5370   11.2740   28.0940 N   0  0  0  0  0  0  0  0  0  0  0  0
   21.4330   10.3730   25.9420 N   0  0  0  0  0  0  0  0  0  0  0  0
   21.0710   10.4680   24.5280 C   0  0  2  0  0  0  0  0  0  0  0  0
   21.1860    9.0190   24.0470 C   0  0  0  0  0  0  0  0  0  0  0  0
   22.0520   11.3250   23.7440 C   0  0  0  0  0  0  0  0  0  0  0  0
   23.1170   11.9630   24.3780 C   0  0  0  0  0  0  0  0  0  0  0  0
   24.0180   12.7470   23.6940 C   0  0  0  0  0  0  0  0  0  0  0  0
   25.0440   13.3300   24.4500 N   0  0  0  0  0  0  0  0  0  0  0  0
   26.3860   13.4410   24.1320 C   0  0  0  0  0  0  0  0  0  0  0  0
   26.9260   12.9180   23.1660 O   0  0  0  0  0  0  0  0  0  0  0  0
   27.1830   14.2980   25.0420 C   0  0  0  0  0  0  0  0  0  0  0  0
   26.5860   15.3710   25.6810 C   0  0  0  0  0  0  0  0  0  0  0  0
   27.3780   16.1390   26.5170 C   0  0  0  0  0  0  0  0  0  0  0  0
   28.7100   15.8170   26.6900 C   0  0  0  0  0  0  0  0  0  0  0  0
   29.5190   16.5380   27.4840 F   0  0  0  0  0  0  0  0  0  0  0  0
   29.2140   14.7340   26.0070 C   0  0  0  0  0  0  0  0  0  0  0  0
   28.4730   13.9740   25.1840 N   0  0  0  0  0  0  0  0  0  0  0  0
   23.9060   12.9120   22.3190 C   0  0  0  0  0  0  0  0  0  0  0  0
   22.8520   12.2890   21.6740 C   0  0  0  0  0  0  0  0  0  0  0  0
   21.9370   11.5310   22.3780 C   0  0  0  0  0  0  0  0  0  0  0  0
   20.8960   10.9540   21.7250 F   0  0  0  0  0  0  0  0  0  0  0  0
   19.6180   10.8670   24.3900 C   0  0  0  0  0  0  0  0  0  0  0  0
   19.3490   12.4920   25.0530 S   0  0  0  0  0  0  0  0  0  0  0  0
   17.9660   12.5350   25.4920 O   0  0  0  0  0  0  0  0  0  0  0  0
   19.9690   13.4990   24.2500 O   0  0  0  0  0  0  0  0  0  0  0  0
   20.1724   13.1775   28.4379 H   0  0  0  0  0  0  0  0  0  0  0  0
   20.8476   14.3295   27.2364 H   0  0  0  0  0  0  0  0  0  0  0  0
   19.0899   13.9594   27.2364 H   0  0  0  0  0  0  0  0  0  0  0  0
   22.0970   10.5300   28.4150 H   0  0  0  0  0  0  0  0  0  0  0  0
   21.2700   11.9920   28.7130 H   0  0  0  0  0  0  0  0  0  0  0  0
   21.2393    8.3472   24.9164 H   0  0  0  0  0  0  0  0  0  0  0  0
   20.3053    8.7633   23.4395 H   0  0  0  0  0  0  0  0  0  0  0  0
   22.0960    8.9054   23.4395 H   0  0  0  0  0  0  0  0  0  0  0  0
   23.2417   11.8353   25.4634 H   0  0  0  0  0  0  0  0  0  0  0  0
   24.7750   13.7090   25.3180 H   0  0  0  0  0  0  0  0  0  0  0  0
   25.5218   15.6047   25.5300 H   0  0  0  0  0  0  0  0  0  0  0  0
   26.9474   17.0041   27.0426 H   0  0  0  0  0  0  0  0  0  0  0  0
   30.2754   14.4782   26.1416 H   0  0  0  0  0  0  0  0  0  0  0  0
   24.6331   13.5194   21.7600 H   0  0  0  0  0  0  0  0  0  0  0  0
   22.7414   12.3991   20.5851 H   0  0  0  0  0  0  0  0  0  0  0  0
   19.3412   10.8608   23.3254 H   0  0  0  0  0  0  0  0  0  0  0  0
   18.9992   10.1496   24.9489 H   0  0  0  0  0  0  0  0  0  0  0  0
  1  2  1  0
  2  3  1  0
  3  4  1  0
  3  5  2  0
  5  6  1  0
  6  7  1  6
  6  8  1  0
  8  9  2  0
  9 10  1  0
 10 11  1  0
 11 12  1  0
 12 13  2  0
 12 14  1  0
 14 15  2  0
 15 16  1  0
 16 17  2  0
 17 18  1  0
 17 19  1  0
 19 20  2  0
 10 21  2  0
 21 22  1  0
 22 23  2  0
 23 24  1  0
  6 25  1  0
 25 26  1  0
 26 27  2  0
 26 28  2  0
 26  2  1  0
 23  8  1  0
 20 14  1  0
  1 29  1  0
  1 30  1  0
  1 31  1  0
  4 32  1  0
  4 33  1  0
  7 34  1  0
  7 35  1  0
  7 36  1  0
  9 37  1  0
 11 38  1  0
 15 39  1  0
 16 40  1  0
 19 41  1  0
 21 42  1  0
 22 43  1  0
 25 44  1  0
 25 45  1  0
M  END
>  <meeko>  (13)
{"is_sidechain": false}

>  <source_group>  (13)
BACE1 canonical

>  <source_system>  (13)
BACE1_verubecestat

>  <source_run>  (13)
canonical_obabel_seed4409_ex32

>  <source_seed>  (13)
4409

>  <vina_pose_rank>  (13)
13

>  <vina_affinity_kcal_mol>  (13)
-7.3760000000000003

>  <vina_rmsd_to_crystal_angstrom>  (13)
4.8437999999999999

$$$$
BACE1_verubecestat__canonical_obabel_seed4409_ex32__pose14
     RDKit          3D

 45 47  0  0  0  0  0  0  0  0999 V2000
   23.7260   13.7720   18.1270 C   0  0  0  0  0  0  0  0  0  0  0  0
   24.8120   13.0530   18.8230 N   0  0  0  0  0  0  0  0  0  0  0  0
   24.7670   11.6670   19.0950 C   0  0  0  0  0  0  0  0  0  0  0  0
   23.7020   11.0230   18.5250 N   0  0  0  0  0  0  0  0  0  0  0  0
   25.6600   11.0410   19.7980 N   0  0  0  0  0  0  0  0  0  0  0  0
   26.7390   11.7540   20.4800 C   0  0  2  0  0  0  0  0  0  0  0  0
   27.7620   10.6470   20.7520 C   0  0  0  0  0  0  0  0  0  0  0  0
   26.2860   12.3400   21.8080 C   0  0  0  0  0  0  0  0  0  0  0  0
   24.9570   12.2500   22.2190 C   0  0  0  0  0  0  0  0  0  0  0  0
   24.5190   12.7740   23.4140 C   0  0  0  0  0  0  0  0  0  0  0  0
   23.1590   12.6130   23.7080 N   0  0  0  0  0  0  0  0  0  0  0  0
   22.5290   11.5220   24.2800 C   0  0  0  0  0  0  0  0  0  0  0  0
   23.0590   10.4430   24.5090 O   0  0  0  0  0  0  0  0  0  0  0  0
   21.1110   11.7360   24.6600 C   0  0  0  0  0  0  0  0  0  0  0  0
   20.2160   10.6810   24.6130 C   0  0  0  0  0  0  0  0  0  0  0  0
   18.9060   10.9380   24.9760 C   0  0  0  0  0  0  0  0  0  0  0  0
   18.5380   12.2100   25.3700 C   0  0  0  0  0  0  0  0  0  0  0  0
   17.2760   12.5090   25.7220 F   0  0  0  0  0  0  0  0  0  0  0  0
   19.4990   13.1950   25.3790 C   0  0  0  0  0  0  0  0  0  0  0  0
   20.7770   12.9780   25.0260 N   0  0  0  0  0  0  0  0  0  0  0  0
   25.4090   13.4030   24.2750 C   0  0  0  0  0  0  0  0  0  0  0  0
   26.7320   13.5040   23.8820 C   0  0  0  0  0  0  0  0  0  0  0  0
   27.1510   13.0020   22.6660 C   0  0  0  0  0  0  0  0  0  0  0  0
   28.4490   13.1410   22.2910 F   0  0  0  0  0  0  0  0  0  0  0  0
   27.3910   12.7380   19.5340 C   0  0  0  0  0  0  0  0  0  0  0  0
   26.2370   13.9940   19.0430 S   0  0  0  0  0  0  0  0  0  0  0  0
   26.6570   14.4520   17.7310 O   0  0  0  0  0  0  0  0  0  0  0  0
   25.9080   14.8620   20.1300 O   0  0  0  0  0  0  0  0  0  0  0  0
   23.0488   14.2204   18.8689 H   0  0  0  0  0  0  0  0  0  0  0  0
   24.1559   14.5645   17.4968 H   0  0  0  0  0  0  0  0  0  0  0  0
   23.1643   13.0667   17.4968 H   0  0  0  0  0  0  0  0  0  0  0  0
   23.5840   10.0550   18.6570 H   0  0  0  0  0  0  0  0  0  0  0  0
   23.0540   11.5280   17.9820 H   0  0  0  0  0  0  0  0  0  0  0  0
   27.8819   10.5173   21.8377 H   0  0  0  0  0  0  0  0  0  0  0  0
   27.4098    9.7048   20.3068 H   0  0  0  0  0  0  0  0  0  0  0  0
   28.7290   10.9239   20.3068 H   0  0  0  0  0  0  0  0  0  0  0  0
   24.2327   11.7422   21.5651 H   0  0  0  0  0  0  0  0  0  0  0  0
   22.5770   13.3740   23.4800 H   0  0  0  0  0  0  0  0  0  0  0  0
   20.5344    9.6761   24.2988 H   0  0  0  0  0  0  0  0  0  0  0  0
   18.1588   10.1311   24.9510 H   0  0  0  0  0  0  0  0  0  0  0  0
   19.2067   14.2088   25.6902 H   0  0  0  0  0  0  0  0  0  0  0  0
   25.0723   13.8087   25.2404 H   0  0  0  0  0  0  0  0  0  0  0  0
   27.4599   13.9910   24.5476 H   0  0  0  0  0  0  0  0  0  0  0  0
   28.2467   13.2109   20.0381 H   0  0  0  0  0  0  0  0  0  0  0  0
   27.7279   12.1969   18.6375 H   0  0  0  0  0  0  0  0  0  0  0  0
  1  2  1  0
  2  3  1  0
  3  4  1  0
  3  5  2  0
  5  6  1  0
  6  7  1  1
  6  8  1  0
  8  9  2  0
  9 10  1  0
 10 11  1  0
 11 12  1  0
 12 13  2  0
 12 14  1  0
 14 15  2  0
 15 16  1  0
 16 17  2  0
 17 18  1  0
 17 19  1  0
 19 20  2  0
 10 21  2  0
 21 22  1  0
 22 23  2  0
 23 24  1  0
  6 25  1  0
 25 26  1  0
 26 27  2  0
 26 28  2  0
 26  2  1  0
 23  8  1  0
 20 14  1  0
  1 29  1  0
  1 30  1  0
  1 31  1  0
  4 32  1  0
  4 33  1  0
  7 34  1  0
  7 35  1  0
  7 36  1  0
  9 37  1  0
 11 38  1  0
 15 39  1  0
 16 40  1  0
 19 41  1  0
 21 42  1  0
 22 43  1  0
 25 44  1  0
 25 45  1  0
M  END
>  <meeko>  (14)
{"is_sidechain": false}

>  <source_group>  (14)
BACE1 canonical

>  <source_system>  (14)
BACE1_verubecestat

>  <source_run>  (14)
canonical_obabel_seed4409_ex32

>  <source_seed>  (14)
4409

>  <vina_pose_rank>  (14)
14

>  <vina_affinity_kcal_mol>  (14)
-7.3700000000000001

>  <vina_rmsd_to_crystal_angstrom>  (14)
7.8711000000000002

$$$$
BACE1_verubecestat__canonical_obabel_seed4409_ex32__pose15
     RDKit          3D

 45 47  0  0  0  0  0  0  0  0999 V2000
   27.9950   14.9890   26.0420 C   0  0  0  0  0  0  0  0  0  0  0  0
   28.0800   15.2940   24.6010 N   0  0  0  0  0  0  0  0  0  0  0  0
   27.1380   16.1060   23.9290 C   0  0  0  0  0  0  0  0  0  0  0  0
   26.2300   16.7060   24.7590 N   0  0  0  0  0  0  0  0  0  0  0  0
   27.1340   16.2960   22.6460 N   0  0  0  0  0  0  0  0  0  0  0  0
   28.0480   15.5760   21.7600 C   0  0  2  0  0  0  0  0  0  0  0  0
   28.0300   16.4250   20.4860 C   0  0  0  0  0  0  0  0  0  0  0  0
   27.5410   14.1820   21.4280 C   0  0  0  0  0  0  0  0  0  0  0  0
   26.2870   13.7500   21.8580 C   0  0  0  0  0  0  0  0  0  0  0  0
   25.8040   12.4930   21.5750 C   0  0  0  0  0  0  0  0  0  0  0  0
   24.5270   12.1860   22.0630 N   0  0  0  0  0  0  0  0  0  0  0  0
   23.3150   12.2590   21.4000 C   0  0  0  0  0  0  0  0  0  0  0  0
   23.1490   12.7390   20.2870 O   0  0  0  0  0  0  0  0  0  0  0  0
   22.1630   11.6650   22.1200 C   0  0  0  0  0  0  0  0  0  0  0  0
   21.5600   12.3620   23.1530 C   0  0  0  0  0  0  0  0  0  0  0  0
   20.4900   11.7600   23.7920 C   0  0  0  0  0  0  0  0  0  0  0  0
   20.0620   10.5100   23.3870 C   0  0  0  0  0  0  0  0  0  0  0  0
   19.0340    9.8820   23.9830 F   0  0  0  0  0  0  0  0  0  0  0  0
   20.7300    9.8940   22.3530 C   0  0  0  0  0  0  0  0  0  0  0  0
   21.7740   10.4500   21.7180 N   0  0  0  0  0  0  0  0  0  0  0  0
   26.5570   11.6040   20.8170 C   0  0  0  0  0  0  0  0  0  0  0  0
   27.8050   12.0140   20.3850 C   0  0  0  0  0  0  0  0  0  0  0  0
   28.2910   13.2670   20.7040 C   0  0  0  0  0  0  0  0  0  0  0  0
   29.5310   13.6340   20.2930 F   0  0  0  0  0  0  0  0  0  0  0  0
   29.4560   15.6320   22.3100 C   0  0  0  0  0  0  0  0  0  0  0  0
   29.5540   14.7900   23.8690 S   0  0  0  0  0  0  0  0  0  0  0  0
   30.6360   15.4130   24.6090 O   0  0  0  0  0  0  0  0  0  0  0  0
   29.3940   13.3770   23.7170 O   0  0  0  0  0  0  0  0  0  0  0  0
   28.2458   15.8889   26.6227 H   0  0  0  0  0  0  0  0  0  0  0  0
   26.9727   14.6664   26.2888 H   0  0  0  0  0  0  0  0  0  0  0  0
   28.7031   14.1842   26.2888 H   0  0  0  0  0  0  0  0  0  0  0  0
   25.5330   17.2910   24.3850 H   0  0  0  0  0  0  0  0  0  0  0  0
   26.2740   16.5520   25.7310 H   0  0  0  0  0  0  0  0  0  0  0  0
   28.0074   17.4911   20.7561 H   0  0  0  0  0  0  0  0  0  0  0  0
   28.9328   16.2160   19.8933 H   0  0  0  0  0  0  0  0  0  0  0  0
   27.1369   16.1779   19.8933 H   0  0  0  0  0  0  0  0  0  0  0  0
   25.6613   14.4388   22.4446 H   0  0  0  0  0  0  0  0  0  0  0  0
   24.4880   11.8790   22.9980 H   0  0  0  0  0  0  0  0  0  0  0  0
   21.9180   13.3574   23.4548 H   0  0  0  0  0  0  0  0  0  0  0  0
   19.9815   12.2753   24.6202 H   0  0  0  0  0  0  0  0  0  0  0  0
   20.3920    8.8978   22.0314 H   0  0  0  0  0  0  0  0  0  0  0  0
   26.1717   10.6042   20.5682 H   0  0  0  0  0  0  0  0  0  0  0  0
   28.4196   11.3325   19.7786 H   0  0  0  0  0  0  0  0  0  0  0  0
   30.1418   15.1518   21.5965 H   0  0  0  0  0  0  0  0  0  0  0  0
   29.7361   16.6853   22.4586 H   0  0  0  0  0  0  0  0  0  0  0  0
  1  2  1  0
  2  3  1  0
  3  4  1  0
  3  5  2  0
  5  6  1  0
  6  7  1  6
  6  8  1  0
  8  9  2  0
  9 10  1  0
 10 11  1  0
 11 12  1  0
 12 13  2  0
 12 14  1  0
 14 15  2  0
 15 16  1  0
 16 17  2  0
 17 18  1  0
 17 19  1  0
 19 20  2  0
 10 21  2  0
 21 22  1  0
 22 23  2  0
 23 24  1  0
  6 25  1  0
 25 26  1  0
 26 27  2  0
 26 28  2  0
 26  2  1  0
 23  8  1  0
 20 14  1  0
  1 29  1  0
  1 30  1  0
  1 31  1  0
  4 32  1  0
  4 33  1  0
  7 34  1  0
  7 35  1  0
  7 36  1  0
  9 37  1  0
 11 38  1  0
 15 39  1  0
 16 40  1  0
 19 41  1  0
 21 42  1  0
 22 43  1  0
 25 44  1  0
 25 45  1  0
M  END
>  <meeko>  (15)
{"is_sidechain": false}

>  <source_group>  (15)
BACE1 canonical

>  <source_system>  (15)
BACE1_verubecestat

>  <source_run>  (15)
canonical_obabel_seed4409_ex32

>  <source_seed>  (15)
4409

>  <vina_pose_rank>  (15)
15

>  <vina_affinity_kcal_mol>  (15)
-7.2329999999999997

>  <vina_rmsd_to_crystal_angstrom>  (15)
7.8205

$$$$
BACE1_verubecestat__canonical_obabel_seed4409_ex32__pose16
     RDKit          3D

 45 47  0  0  0  0  0  0  0  0999 V2000
   29.5410   15.3940   22.3900 C   0  0  0  0  0  0  0  0  0  0  0  0
   29.0330   14.0930   21.9130 N   0  0  0  0  0  0  0  0  0  0  0  0
   29.6900   13.3240   20.9260 C   0  0  0  0  0  0  0  0  0  0  0  0
   30.9150   13.8160   20.5640 N   0  0  0  0  0  0  0  0  0  0  0  0
   29.2030   12.2350   20.4180 N   0  0  0  0  0  0  0  0  0  0  0  0
   27.8550   11.7710   20.7420 C   0  0  2  0  0  0  0  0  0  0  0  0
   27.8920   10.2960   20.3340 C   0  0  0  0  0  0  0  0  0  0  0  0
   26.7930   12.4820   19.9170 C   0  0  0  0  0  0  0  0  0  0  0  0
   27.1450   13.3700   18.9020 C   0  0  0  0  0  0  0  0  0  0  0  0
   26.2050   14.0290   18.1420 C   0  0  0  0  0  0  0  0  0  0  0  0
   26.6920   14.8920   17.1520 N   0  0  0  0  0  0  0  0  0  0  0  0
   27.2840   16.1320   17.3120 C   0  0  0  0  0  0  0  0  0  0  0  0
   27.3630   16.7440   18.3690 O   0  0  0  0  0  0  0  0  0  0  0  0
   27.8870   16.7090   16.0850 C   0  0  0  0  0  0  0  0  0  0  0  0
   28.8710   16.0120   15.4060 C   0  0  0  0  0  0  0  0  0  0  0  0
   29.4000   16.5980   14.2690 C   0  0  0  0  0  0  0  0  0  0  0  0
   28.9380   17.8320   13.8520 C   0  0  0  0  0  0  0  0  0  0  0  0
   29.4280   18.4430   12.7610 F   0  0  0  0  0  0  0  0  0  0  0  0
   27.9610   18.4490   14.5990 C   0  0  0  0  0  0  0  0  0  0  0  0
   27.4320   17.9090   15.7090 N   0  0  0  0  0  0  0  0  0  0  0  0
   24.8500   13.8080   18.3530 C   0  0  0  0  0  0  0  0  0  0  0  0
   24.4820   12.9330   19.3590 C   0  0  0  0  0  0  0  0  0  0  0  0
   25.4360   12.3030   20.1350 C   0  0  0  0  0  0  0  0  0  0  0  0
   25.0480   11.4710   21.1350 F   0  0  0  0  0  0  0  0  0  0  0  0
   27.6380   11.8120   22.2380 C   0  0  0  0  0  0  0  0  0  0  0  0
   27.7170   13.4810   22.8380 S   0  0  0  0  0  0  0  0  0  0  0  0
   28.1610   13.4040   24.2180 O   0  0  0  0  0  0  0  0  0  0  0  0
   26.5980   14.2530   22.3960 O   0  0  0  0  0  0  0  0  0  0  0  0
   29.5453   15.4050   23.4899 H   0  0  0  0  0  0  0  0  0  0  0  0
   30.5648   15.5467   22.0178 H   0  0  0  0  0  0  0  0  0  0  0  0
   28.8915   16.2000   22.0178 H   0  0  0  0  0  0  0  0  0  0  0  0
   31.4510   13.3490   19.8820 H   0  0  0  0  0  0  0  0  0  0  0  0
   31.2610   14.6370   20.9850 H   0  0  0  0  0  0  0  0  0  0  0  0
   27.9078    9.6664   21.2359 H   0  0  0  0  0  0  0  0  0  0  0  0
   26.9995   10.0583   19.7365 H   0  0  0  0  0  0  0  0  0  0  0  0
   28.7953   10.1034   19.7365 H   0  0  0  0  0  0  0  0  0  0  0  0
   28.2113   13.5506   18.7011 H   0  0  0  0  0  0  0  0  0  0  0  0
   26.6020   14.5750   16.2240 H   0  0  0  0  0  0  0  0  0  0  0  0
   29.2196   15.0294   15.7566 H   0  0  0  0  0  0  0  0  0  0  0  0
   30.1866   16.0825   13.6984 H   0  0  0  0  0  0  0  0  0  0  0  0
   27.5952   19.4331   14.2708 H   0  0  0  0  0  0  0  0  0  0  0  0
   24.0915   14.3142   17.7378 H   0  0  0  0  0  0  0  0  0  0  0  0
   23.4157   12.7360   19.5437 H   0  0  0  0  0  0  0  0  0  0  0  0
   26.6489   11.3909   22.4711 H   0  0  0  0  0  0  0  0  0  0  0  0
   28.4283   11.2229   22.7263 H   0  0  0  0  0  0  0  0  0  0  0  0
  1  2  1  0
  2  3  1  0
  3  4  1  0
  3  5  2  0
  5  6  1  0
  6  7  1  6
  6  8  1  0
  8  9  2  0
  9 10  1  0
 10 11  1  0
 11 12  1  0
 12 13  2  0
 12 14  1  0
 14 15  2  0
 15 16  1  0
 16 17  2  0
 17 18  1  0
 17 19  1  0
 19 20  2  0
 10 21  2  0
 21 22  1  0
 22 23  2  0
 23 24  1  0
  6 25  1  0
 25 26  1  0
 26 27  2  0
 26 28  2  0
 26  2  1  0
 23  8  1  0
 20 14  1  0
  1 29  1  0
  1 30  1  0
  1 31  1  0
  4 32  1  0
  4 33  1  0
  7 34  1  0
  7 35  1  0
  7 36  1  0
  9 37  1  0
 11 38  1  0
 15 39  1  0
 16 40  1  0
 19 41  1  0
 21 42  1  0
 22 43  1  0
 25 44  1  0
 25 45  1  0
M  END
>  <meeko>  (16)
{"is_sidechain": false}

>  <source_group>  (16)
BACE1 canonical

>  <source_system>  (16)
BACE1_verubecestat

>  <source_run>  (16)
canonical_obabel_seed4409_ex32

>  <source_seed>  (16)
4409

>  <vina_pose_rank>  (16)
16

>  <vina_affinity_kcal_mol>  (16)
-7.2199999999999998

>  <vina_rmsd_to_crystal_angstrom>  (16)
7.9893999999999998

$$$$
BACE1_verubecestat__canonical_obabel_seed4409_ex32__pose17
     RDKit          3D

 45 47  0  0  0  0  0  0  0  0999 V2000
   17.4330   17.6220   27.3470 C   0  0  0  0  0  0  0  0  0  0  0  0
   17.0920   16.3020   26.7800 N   0  0  0  0  0  0  0  0  0  0  0  0
   16.3990   15.3080   27.5050 C   0  0  0  0  0  0  0  0  0  0  0  0
   15.9370   15.7300   28.7230 N   0  0  0  0  0  0  0  0  0  0  0  0
   16.1870   14.1070   27.0630 N   0  0  0  0  0  0  0  0  0  0  0  0
   16.7650   13.6400   25.8040 C   0  0  2  0  0  0  0  0  0  0  0  0
   15.9020   12.4220   25.4620 C   0  0  0  0  0  0  0  0  0  0  0  0
   18.2070   13.1890   25.9710 C   0  0  0  0  0  0  0  0  0  0  0  0
   19.0320   12.9900   24.8650 C   0  0  0  0  0  0  0  0  0  0  0  0
   20.3410   12.5800   24.9860 C   0  0  0  0  0  0  0  0  0  0  0  0
   21.0620   12.4200   23.7950 N   0  0  0  0  0  0  0  0  0  0  0  0
   21.0000   11.3770   22.8890 C   0  0  0  0  0  0  0  0  0  0  0  0
   20.3780   10.3360   23.0550 O   0  0  0  0  0  0  0  0  0  0  0  0
   21.7310   11.5980   21.6180 C   0  0  0  0  0  0  0  0  0  0  0  0
   21.8560   12.8780   21.1060 C   0  0  0  0  0  0  0  0  0  0  0  0
   22.5470   13.0270   19.9170 C   0  0  0  0  0  0  0  0  0  0  0  0
   23.0820   11.9190   19.2890 C   0  0  0  0  0  0  0  0  0  0  0  0
   23.7530   12.0130   18.1280 F   0  0  0  0  0  0  0  0  0  0  0  0
   22.9000   10.6860   19.8730 C   0  0  0  0  0  0  0  0  0  0  0  0
   22.2300   10.5100   21.0240 N   0  0  0  0  0  0  0  0  0  0  0  0
   20.8970   12.3670   26.2410 C   0  0  0  0  0  0  0  0  0  0  0  0
   20.0920   12.5550   27.3500 C   0  0  0  0  0  0  0  0  0  0  0  0
   18.7720   12.9370   27.2120 C   0  0  0  0  0  0  0  0  0  0  0  0
   17.9950   13.0860   28.3150 F   0  0  0  0  0  0  0  0  0  0  0  0
   16.5360   14.6640   24.7150 C   0  0  0  0  0  0  0  0  0  0  0  0
   17.3870   16.1770   25.0880 S   0  0  0  0  0  0  0  0  0  0  0  0
   16.6410   17.2420   24.4420 O   0  0  0  0  0  0  0  0  0  0  0  0
   18.8050   16.0200   24.9990 O   0  0  0  0  0  0  0  0  0  0  0  0
   17.4181   17.5642   28.4454 H   0  0  0  0  0  0  0  0  0  0  0  0
   18.4371   17.9179   27.0090 H   0  0  0  0  0  0  0  0  0  0  0  0
   16.6979   18.3672   27.0090 H   0  0  0  0  0  0  0  0  0  0  0  0
   15.4410   15.1090   29.3040 H   0  0  0  0  0  0  0  0  0  0  0  0
   16.1020   16.6550   29.0190 H   0  0  0  0  0  0  0  0  0  0  0  0
   15.5615   11.9414   26.3910 H   0  0  0  0  0  0  0  0  0  0  0  0
   15.0295   12.7441   24.8747 H   0  0  0  0  0  0  0  0  0  0  0  0
   16.4952   11.7056   24.8747 H   0  0  0  0  0  0  0  0  0  0  0  0
   18.6226   13.1669   23.8595 H   0  0  0  0  0  0  0  0  0  0  0  0
   21.6920   13.1440   23.5760 H   0  0  0  0  0  0  0  0  0  0  0  0
   21.4218   13.7449   21.6256 H   0  0  0  0  0  0  0  0  0  0  0  0
   22.6702   14.0256   19.4725 H   0  0  0  0  0  0  0  0  0  0  0  0
   23.3235    9.8023   19.3733 H   0  0  0  0  0  0  0  0  0  0  0  0
   21.9470   12.0578   26.3497 H   0  0  0  0  0  0  0  0  0  0  0  0
   20.5089   12.3981   28.3558 H   0  0  0  0  0  0  0  0  0  0  0  0
   16.9095   14.2655   23.7602 H   0  0  0  0  0  0  0  0  0  0  0  0
   15.4581   14.8721   24.6459 H   0  0  0  0  0  0  0  0  0  0  0  0
  1  2  1  0
  2  3  1  0
  3  4  1  0
  3  5  2  0
  5  6  1  0
  6  7  1  6
  6  8  1  0
  8  9  2  0
  9 10  1  0
 10 11  1  0
 11 12  1  0
 12 13  2  0
 12 14  1  0
 14 15  2  0
 15 16  1  0
 16 17  2  0
 17 18  1  0
 17 19  1  0
 19 20  2  0
 10 21  2  0
 21 22  1  0
 22 23  2  0
 23 24  1  0
  6 25  1  0
 25 26  1  0
 26 27  2  0
 26 28  2  0
 26  2  1  0
 23  8  1  0
 20 14  1  0
  1 29  1  0
  1 30  1  0
  1 31  1  0
  4 32  1  0
  4 33  1  0
  7 34  1  0
  7 35  1  0
  7 36  1  0
  9 37  1  0
 11 38  1  0
 15 39  1  0
 16 40  1  0
 19 41  1  0
 21 42  1  0
 22 43  1  0
 25 44  1  0
 25 45  1  0
M  END
>  <meeko>  (17)
{"is_sidechain": false}

>  <source_group>  (17)
BACE1 canonical

>  <source_system>  (17)
BACE1_verubecestat

>  <source_run>  (17)
canonical_obabel_seed4409_ex32

>  <source_seed>  (17)
4409

>  <vina_pose_rank>  (17)
17

>  <vina_affinity_kcal_mol>  (17)
-7.2009999999999996

>  <vina_rmsd_to_crystal_angstrom>  (17)
7.9889000000000001

$$$$
BACE1_verubecestat__canonical_obabel_seed4409_ex32__pose18
     RDKit          3D

 45 47  0  0  0  0  0  0  0  0999 V2000
   29.2680   16.5240   23.9050 C   0  0  0  0  0  0  0  0  0  0  0  0
   29.3280   15.2420   23.1760 N   0  0  0  0  0  0  0  0  0  0  0  0
   30.2860   14.9700   22.1740 C   0  0  0  0  0  0  0  0  0  0  0  0
   31.2450   15.9390   22.0450 N   0  0  0  0  0  0  0  0  0  0  0  0
   30.2870   13.8940   21.4490 N   0  0  0  0  0  0  0  0  0  0  0  0
   29.2060   12.9130   21.5300 C   0  0  2  0  0  0  0  0  0  0  0  0
   29.8330   11.6610   20.9110 C   0  0  0  0  0  0  0  0  0  0  0  0
   28.0010   13.3220   20.6980 C   0  0  0  0  0  0  0  0  0  0  0  0
   26.7210   12.8670   21.0130 C   0  0  0  0  0  0  0  0  0  0  0  0
   25.6130   13.2190   20.2750 C   0  0  0  0  0  0  0  0  0  0  0  0
   24.3850   12.6950   20.7000 N   0  0  0  0  0  0  0  0  0  0  0  0
   23.5960   11.7450   20.0760 C   0  0  0  0  0  0  0  0  0  0  0  0
   23.7940   11.2910   18.9570 O   0  0  0  0  0  0  0  0  0  0  0  0
   22.4550   11.2420   20.8800 C   0  0  0  0  0  0  0  0  0  0  0  0
   21.9300   12.0210   21.8960 C   0  0  0  0  0  0  0  0  0  0  0  0
   20.8670   11.5020   22.6150 C   0  0  0  0  0  0  0  0  0  0  0  0
   20.3700   10.2520   22.3020 C   0  0  0  0  0  0  0  0  0  0  0  0
   19.3460    9.7030   22.9780 F   0  0  0  0  0  0  0  0  0  0  0  0
   20.9640    9.5500   21.2770 C   0  0  0  0  0  0  0  0  0  0  0  0
   22.0000   10.0250   20.5660 N   0  0  0  0  0  0  0  0  0  0  0  0
   25.7340   14.0720   19.1860 C   0  0  0  0  0  0  0  0  0  0  0  0
   26.9980   14.5300   18.8570 C   0  0  0  0  0  0  0  0  0  0  0  0
   28.1050   14.1440   19.5860 C   0  0  0  0  0  0  0  0  0  0  0  0
   29.3370   14.5840   19.2240 F   0  0  0  0  0  0  0  0  0  0  0  0
   28.9060   12.5890   22.9770 C   0  0  0  0  0  0  0  0  0  0  0  0
   28.3000   14.0250   23.8280 S   0  0  0  0  0  0  0  0  0  0  0  0
   28.6610   13.8600   25.2250 O   0  0  0  0  0  0  0  0  0  0  0  0
   26.9980   14.3970   23.3730 O   0  0  0  0  0  0  0  0  0  0  0  0
   29.2770   16.3308   24.9879 H   0  0  0  0  0  0  0  0  0  0  0  0
   30.1383   17.1403   23.6352 H   0  0  0  0  0  0  0  0  0  0  0  0
   28.3440   17.0563   23.6352 H   0  0  0  0  0  0  0  0  0  0  0  0
   31.9570   15.8400   21.3720 H   0  0  0  0  0  0  0  0  0  0  0  0
   31.2230   16.7350   22.6250 H   0  0  0  0  0  0  0  0  0  0  0  0
   30.1709   10.9862   21.7113 H   0  0  0  0  0  0  0  0  0  0  0  0
   29.0862   11.1464   20.2885 H   0  0  0  0  0  0  0  0  0  0  0  0
   30.6924   11.9508   20.2885 H   0  0  0  0  0  0  0  0  0  0  0  0
   26.5919   12.2039   21.8811 H   0  0  0  0  0  0  0  0  0  0  0  0
   24.0390   13.0490   21.5520 H   0  0  0  0  0  0  0  0  0  0  0  0
   22.3418   13.0152   22.1238 H   0  0  0  0  0  0  0  0  0  0  0  0
   20.4191   12.0840   23.4339 H   0  0  0  0  0  0  0  0  0  0  0  0
   20.5715    8.5529   21.0286 H   0  0  0  0  0  0  0  0  0  0  0  0
   24.8520   14.3746   18.6025 H   0  0  0  0  0  0  0  0  0  0  0  0
   27.1223   15.2113   18.0024 H   0  0  0  0  0  0  0  0  0  0  0  0
   28.1449   11.7960   23.0193 H   0  0  0  0  0  0  0  0  0  0  0  0
   29.8334   12.2537   23.4644 H   0  0  0  0  0  0  0  0  0  0  0  0
  1  2  1  0
  2  3  1  0
  3  4  1  0
  3  5  2  0
  5  6  1  0
  6  7  1  6
  6  8  1  0
  8  9  2  0
  9 10  1  0
 10 11  1  0
 11 12  1  0
 12 13  2  0
 12 14  1  0
 14 15  2  0
 15 16  1  0
 16 17  2  0
 17 18  1  0
 17 19  1  0
 19 20  2  0
 10 21  2  0
 21 22  1  0
 22 23  2  0
 23 24  1  0
  6 25  1  0
 25 26  1  0
 26 27  2  0
 26 28  2  0
 26  2  1  0
 23  8  1  0
 20 14  1  0
  1 29  1  0
  1 30  1  0
  1 31  1  0
  4 32  1  0
  4 33  1  0
  7 34  1  0
  7 35  1  0
  7 36  1  0
  9 37  1  0
 11 38  1  0
 15 39  1  0
 16 40  1  0
 19 41  1  0
 21 42  1  0
 22 43  1  0
 25 44  1  0
 25 45  1  0
M  END
>  <meeko>  (18)
{"is_sidechain": false}

>  <source_group>  (18)
BACE1 canonical

>  <source_system>  (18)
BACE1_verubecestat

>  <source_run>  (18)
canonical_obabel_seed4409_ex32

>  <source_seed>  (18)
4409

>  <vina_pose_rank>  (18)
18

>  <vina_affinity_kcal_mol>  (18)
-7.1840000000000002

>  <vina_rmsd_to_crystal_angstrom>  (18)
7.7138

$$$$
BACE1_verubecestat__canonical_obabel_seed4409_ex32__pose19
     RDKit          3D

 45 47  0  0  0  0  0  0  0  0999 V2000
   19.7660   15.6710   27.5570 C   0  0  0  0  0  0  0  0  0  0  0  0
   19.8770   14.2030   27.4410 N   0  0  0  0  0  0  0  0  0  0  0  0
   20.6410   13.4160   28.3310 C   0  0  0  0  0  0  0  0  0  0  0  0
   21.1430   14.1130   29.3980 N   0  0  0  0  0  0  0  0  0  0  0  0
   20.8380   12.1430   28.1810 N   0  0  0  0  0  0  0  0  0  0  0  0
   20.3770   11.4290   26.9910 C   0  0  2  0  0  0  0  0  0  0  0  0
   20.3860    9.9660   27.4430 C   0  0  0  0  0  0  0  0  0  0  0  0
   21.3390   11.5880   25.8230 C   0  0  0  0  0  0  0  0  0  0  0  0
   22.5890   12.1810   25.9950 C   0  0  0  0  0  0  0  0  0  0  0  0
   23.4770   12.3400   24.9560 C   0  0  0  0  0  0  0  0  0  0  0  0
   24.7010   12.9490   25.2650 N   0  0  0  0  0  0  0  0  0  0  0  0
   25.6170   13.5180   24.3980 C   0  0  0  0  0  0  0  0  0  0  0  0
   25.5590   13.4640   23.1770 O   0  0  0  0  0  0  0  0  0  0  0  0
   26.7180   14.2720   25.0460 C   0  0  0  0  0  0  0  0  0  0  0  0
   26.4290   15.3500   25.8640 C   0  0  0  0  0  0  0  0  0  0  0  0
   27.4950   16.0180   26.4410 C   0  0  0  0  0  0  0  0  0  0  0  0
   28.7870   15.5960   26.1930 C   0  0  0  0  0  0  0  0  0  0  0  0
   29.8530   16.2190   26.7240 F   0  0  0  0  0  0  0  0  0  0  0  0
   28.9730   14.5160   25.3610 C   0  0  0  0  0  0  0  0  0  0  0  0
   27.9600   13.8520   24.7820 N   0  0  0  0  0  0  0  0  0  0  0  0
   23.1590   11.8850   23.6830 C   0  0  0  0  0  0  0  0  0  0  0  0
   21.9210   11.2970   23.4930 C   0  0  0  0  0  0  0  0  0  0  0  0
   21.0270   11.1730   24.5380 C   0  0  0  0  0  0  0  0  0  0  0  0
   19.8070   10.6190   24.3180 F   0  0  0  0  0  0  0  0  0  0  0  0
   18.9400   11.7920   26.6910 C   0  0  0  0  0  0  0  0  0  0  0  0
   18.7990   13.5150   26.2890 S   0  0  0  0  0  0  0  0  0  0  0  0
   17.4550   13.9190   26.6630 O   0  0  0  0  0  0  0  0  0  0  0  0
   19.4070   13.8140   25.0300 O   0  0  0  0  0  0  0  0  0  0  0  0
   19.7446   15.9543   28.6197 H   0  0  0  0  0  0  0  0  0  0  0  0
   20.6310   16.1438   27.0689 H   0  0  0  0  0  0  0  0  0  0  0  0
   18.8398   16.0084   27.0689 H   0  0  0  0  0  0  0  0  0  0  0  0
   21.6880   13.6510   30.0740 H   0  0  0  0  0  0  0  0  0  0  0  0
   20.9580   15.0760   29.4880 H   0  0  0  0  0  0  0  0  0  0  0  0
   20.3863    9.9218   28.5421 H   0  0  0  0  0  0  0  0  0  0  0  0
   19.4910    9.4571   27.0558 H   0  0  0  0  0  0  0  0  0  0  0  0
   21.2872    9.4681   27.0558 H   0  0  0  0  0  0  0  0  0  0  0  0
   22.8754   12.5342   26.9966 H   0  0  0  0  0  0  0  0  0  0  0  0
   24.9390   12.9750   26.2200 H   0  0  0  0  0  0  0  0  0  0  0  0
   25.3911   15.6642   26.0487 H   0  0  0  0  0  0  0  0  0  0  0  0
   27.3140   16.8832   27.0957 H   0  0  0  0  0  0  0  0  0  0  0  0
   30.0012   14.1805   25.1606 H   0  0  0  0  0  0  0  0  0  0  0  0
   23.8703   11.9890   22.8504 H   0  0  0  0  0  0  0  0  0  0  0  0
   21.6452   10.9232   22.4959 H   0  0  0  0  0  0  0  0  0  0  0  0
   18.5864   11.1924   25.8393 H   0  0  0  0  0  0  0  0  0  0  0  0
   18.3296   11.5858   27.5826 H   0  0  0  0  0  0  0  0  0  0  0  0
  1  2  1  0
  2  3  1  0
  3  4  1  0
  3  5  2  0
  5  6  1  0
  6  7  1  1
  6  8  1  0
  8  9  2  0
  9 10  1  0
 10 11  1  0
 11 12  1  0
 12 13  2  0
 12 14  1  0
 14 15  2  0
 15 16  1  0
 16 17  2  0
 17 18  1  0
 17 19  1  0
 19 20  2  0
 10 21  2  0
 21 22  1  0
 22 23  2  0
 23 24  1  0
  6 25  1  0
 25 26  1  0
 26 27  2  0
 26 28  2  0
 26  2  1  0
 23  8  1  0
 20 14  1  0
  1 29  1  0
  1 30  1  0
  1 31  1  0
  4 32  1  0
  4 33  1  0
  7 34  1  0
  7 35  1  0
  7 36  1  0
  9 37  1  0
 11 38  1  0
 15 39  1  0
 16 40  1  0
 19 41  1  0
 21 42  1  0
 22 43  1  0
 25 44  1  0
 25 45  1  0
M  END
>  <meeko>  (19)
{"is_sidechain": false}

>  <source_group>  (19)
BACE1 canonical

>  <source_system>  (19)
BACE1_verubecestat

>  <source_run>  (19)
canonical_obabel_seed4409_ex32

>  <source_seed>  (19)
4409

>  <vina_pose_rank>  (19)
19

>  <vina_affinity_kcal_mol>  (19)
-7.1550000000000002

>  <vina_rmsd_to_crystal_angstrom>  (19)
5.9031000000000002

$$$$
BACE1_verubecestat__canonical_obabel_seed4409_ex32__pose20
     RDKit          3D

 45 47  0  0  0  0  0  0  0  0999 V2000
   27.7290   15.5160   21.4380 C   0  0  0  0  0  0  0  0  0  0  0  0
   27.2350   14.2080   20.9640 N   0  0  0  0  0  0  0  0  0  0  0  0
   27.3430   13.7850   19.6200 C   0  0  0  0  0  0  0  0  0  0  0  0
   28.0800   14.6260   18.8300 N   0  0  0  0  0  0  0  0  0  0  0  0
   26.8190   12.6890   19.1640 N   0  0  0  0  0  0  0  0  0  0  0  0
   25.9550   11.8480   19.9920 C   0  0  2  0  0  0  0  0  0  0  0  0
   25.9730   10.5070   19.2540 C   0  0  0  0  0  0  0  0  0  0  0  0
   24.5260   12.3660   20.0350 C   0  0  0  0  0  0  0  0  0  0  0  0
   23.7580   12.2640   21.1940 C   0  0  0  0  0  0  0  0  0  0  0  0
   22.4610   12.7210   21.2610 C   0  0  0  0  0  0  0  0  0  0  0  0
   21.8010   12.5600   22.4860 N   0  0  0  0  0  0  0  0  0  0  0  0
   20.9800   11.5210   22.8870 C   0  0  0  0  0  0  0  0  0  0  0  0
   20.5880   10.6140   22.1640 O   0  0  0  0  0  0  0  0  0  0  0  0
   20.6000   11.5310   24.3210 C   0  0  0  0  0  0  0  0  0  0  0  0
   19.8240   12.5620   24.8220 C   0  0  0  0  0  0  0  0  0  0  0  0
   19.5010   12.5220   26.1670 C   0  0  0  0  0  0  0  0  0  0  0  0
   19.9490   11.4770   26.9520 C   0  0  0  0  0  0  0  0  0  0  0  0
   19.6680   11.4010   28.2640 F   0  0  0  0  0  0  0  0  0  0  0  0
   20.7200   10.5010   26.3630 C   0  0  0  0  0  0  0  0  0  0  0  0
   21.0550   10.5160   25.0620 N   0  0  0  0  0  0  0  0  0  0  0  0
   21.8730   13.3300   20.1600 C   0  0  0  0  0  0  0  0  0  0  0  0
   22.6190   13.4370   19.0000 C   0  0  0  0  0  0  0  0  0  0  0  0
   23.9080   12.9450   18.9380 C   0  0  0  0  0  0  0  0  0  0  0  0
   24.6090   13.0360   17.7780 F   0  0  0  0  0  0  0  0  0  0  0  0
   26.5950   11.6190   21.3440 C   0  0  0  0  0  0  0  0  0  0  0  0
   26.7500   13.1490   22.2310 S   0  0  0  0  0  0  0  0  0  0  0  0
   27.8860   12.9970   23.1220 O   0  0  0  0  0  0  0  0  0  0  0  0
   25.4760   13.6570   22.6330 O   0  0  0  0  0  0  0  0  0  0  0  0
   27.7340   15.5294   22.5379 H   0  0  0  0  0  0  0  0  0  0  0  0
   28.7507   15.6793   21.0646 H   0  0  0  0  0  0  0  0  0  0  0  0
   27.0703   16.3139   21.0646 H   0  0  0  0  0  0  0  0  0  0  0  0
   28.2120   14.4160   17.8780 H   0  0  0  0  0  0  0  0  0  0  0  0
   28.4780   15.4400   19.2150 H   0  0  0  0  0  0  0  0  0  0  0  0
   25.9840    9.6858   19.9858 H   0  0  0  0  0  0  0  0  0  0  0  0
   25.0759   10.4237   18.6229 H   0  0  0  0  0  0  0  0  0  0  0  0
   26.8720   10.4478   18.6229 H   0  0  0  0  0  0  0  0  0  0  0  0
   24.2042   11.8019   22.0869 H   0  0  0  0  0  0  0  0  0  0  0  0
   21.9400   13.2770   23.1460 H   0  0  0  0  0  0  0  0  0  0  0  0
   19.4773   13.3818   24.1757 H   0  0  0  0  0  0  0  0  0  0  0  0
   18.8885   13.3209   26.6105 H   0  0  0  0  0  0  0  0  0  0  0  0
   21.0790    9.6692   26.9869 H   0  0  0  0  0  0  0  0  0  0  0  0
   20.8441   13.7160   20.2090 H   0  0  0  0  0  0  0  0  0  0  0  0
   22.1796   13.9205   18.1150 H   0  0  0  0  0  0  0  0  0  0  0  0
   25.9707   10.9254   21.9264 H   0  0  0  0  0  0  0  0  0  0  0  0
   27.5983   11.1939   21.1933 H   0  0  0  0  0  0  0  0  0  0  0  0
  1  2  1  0
  2  3  1  0
  3  4  1  0
  3  5  2  0
  5  6  1  0
  6  7  1  6
  6  8  1  0
  8  9  2  0
  9 10  1  0
 10 11  1  0
 11 12  1  0
 12 13  2  0
 12 14  1  0
 14 15  2  0
 15 16  1  0
 16 17  2  0
 17 18  1  0
 17 19  1  0
 19 20  2  0
 10 21  2  0
 21 22  1  0
 22 23  2  0
 23 24  1  0
  6 25  1  0
 25 26  1  0
 26 27  2  0
 26 28  2  0
 26  2  1  0
 23  8  1  0
 20 14  1  0
  1 29  1  0
  1 30  1  0
  1 31  1  0
  4 32  1  0
  4 33  1  0
  7 34  1  0
  7 35  1  0
  7 36  1  0
  9 37  1  0
 11 38  1  0
 15 39  1  0
 16 40  1  0
 19 41  1  0
 21 42  1  0
 22 43  1  0
 25 44  1  0
 25 45  1  0
M  END
>  <meeko>  (20)
{"is_sidechain": false}

>  <source_group>  (20)
BACE1 canonical

>  <source_system>  (20)
BACE1_verubecestat

>  <source_run>  (20)
canonical_obabel_seed4409_ex32

>  <source_seed>  (20)
4409

>  <vina_pose_rank>  (20)
20

>  <vina_affinity_kcal_mol>  (20)
-7.1529999999999996

>  <vina_rmsd_to_crystal_angstrom>  (20)
7.3586

$$$$
