BACE1_verubecestat_401__alternate_401_seed1103_ex32__pose01
     RDKit          3D

 45 47  0  0  0  0  0  0  0  0999 V2000
   16.8650    4.7700   16.0160 C   0  0  0  0  0  0  0  0  0  0  0  0
   16.1510    4.1900   17.1710 N   0  0  0  0  0  0  0  0  0  0  0  0
   14.7490    4.2610   17.3240 C   0  0  0  0  0  0  0  0  0  0  0  0
   14.0970    4.7800   16.2370 N   0  0  0  0  0  0  0  0  0  0  0  0
   14.1160    3.8540   18.3810 N   0  0  0  0  0  0  0  0  0  0  0  0
   14.8280    3.3900   19.5710 C   0  0  2  0  0  0  0  0  0  0  0  0
   13.7570    2.5970   20.3240 C   0  0  0  0  0  0  0  0  0  0  0  0
   15.2900    4.5450   20.4460 C   0  0  0  0  0  0  0  0  0  0  0  0
   16.2020    4.3450   21.4810 C   0  0  0  0  0  0  0  0  0  0  0  0
   16.6350    5.3710   22.2900 C   0  0  0  0  0  0  0  0  0  0  0  0
   17.5540    5.0340   23.2920 N   0  0  0  0  0  0  0  0  0  0  0  0
   18.8880    5.3900   23.3860 C   0  0  0  0  0  0  0  0  0  0  0  0
   19.5260    5.9670   22.5150 O   0  0  0  0  0  0  0  0  0  0  0  0
   19.5430    5.0560   24.6740 C   0  0  0  0  0  0  0  0  0  0  0  0
   19.3710    5.8820   25.7710 C   0  0  0  0  0  0  0  0  0  0  0  0
   20.0070    5.5230   26.9470 C   0  0  0  0  0  0  0  0  0  0  0  0
   20.7750    4.3760   26.9910 C   0  0  0  0  0  0  0  0  0  0  0  0
   21.4190    3.9930   28.1070 F   0  0  0  0  0  0  0  0  0  0  0  0
   20.8910    3.6220   25.8450 C   0  0  0  0  0  0  0  0  0  0  0  0
   20.2910    3.9470   24.6890 N   0  0  0  0  0  0  0  0  0  0  0  0
   16.1850    6.6680   22.0820 C   0  0  0  0  0  0  0  0  0  0  0  0
   15.2770    6.8860   21.0610 C   0  0  0  0  0  0  0  0  0  0  0  0
   14.8260    5.8410   20.2770 C   0  0  0  0  0  0  0  0  0  0  0  0
   13.9130    6.0760   19.3010 F   0  0  0  0  0  0  0  0  0  0  0  0
   15.9120    2.4100   19.1790 C   0  0  0  0  0  0  0  0  0  0  0  0
   17.1420    3.2040   18.1760 S   0  0  0  0  0  0  0  0  0  0  0  0
   17.7180    2.1720   17.3320 O   0  0  0  0  0  0  0  0  0  0  0  0
   17.9090    4.1470   18.9290 O   0  0  0  0  0  0  0  0  0  0  0  0
   17.6720    5.4255   16.3753 H   0  0  0  0  0  0  0  0  0  0  0  0
   17.2938    3.9612   15.4061 H   0  0  0  0  0  0  0  0  0  0  0  0
   16.1612    5.3554   15.4061 H   0  0  0  0  0  0  0  0  0  0  0  0
   13.1170    4.8700   16.2480 H   0  0  0  0  0  0  0  0  0  0  0  0
   14.6080    5.0620   15.4440 H   0  0  0  0  0  0  0  0  0  0  0  0
   13.9105    2.7106   21.4073 H   0  0  0  0  0  0  0  0  0  0  0  0
   12.7610    2.9771   20.0529 H   0  0  0  0  0  0  0  0  0  0  0  0
   13.8299    1.5334   20.0529 H   0  0  0  0  0  0  0  0  0  0  0  0
   16.5896    3.3308   21.6576 H   0  0  0  0  0  0  0  0  0  0  0  0
   17.2070    4.4740   24.0230 H   0  0  0  0  0  0  0  0  0  0  0  0
   18.7523    6.7895   25.7107 H   0  0  0  0  0  0  0  0  0  0  0  0
   19.9009    6.1500   27.8446 H   0  0  0  0  0  0  0  0  0  0  0  0
   21.5046    2.7097   25.8782 H   0  0  0  0  0  0  0  0  0  0  0  0
   16.5400    7.4980   22.7106 H   0  0  0  0  0  0  0  0  0  0  0  0
   14.9090    7.9050   20.8707 H   0  0  0  0  0  0  0  0  0  0  0  0
   16.3878    2.0148   20.0887 H   0  0  0  0  0  0  0  0  0  0  0  0
   15.4574    1.5924   18.6003 H   0  0  0  0  0  0  0  0  0  0  0  0
  1  2  1  0
  2  3  1  0
  3  4  1  0
  3  5  2  0
  5  6  1  0
  6  7  1  1
  6  8  1  0
  8  9  2  0
  9 10  1  0
 10 11  1  0
 11 12  1  0
 12 13  2  0
 12 14  1  0
 14 15  2  0
 15 16  1  0
 16 17  2  0
 17 18  1  0
 17 19  1  0
 19 20  2  0
 10 21  2  0
 21 22  1  0
 22 23  2  0
 23 24  1  0
  6 25  1  0
 25 26  1  0
 26 27  2  0
 26 28  2  0
 26  2  1  0
 23  8  1  0
 20 14  1  0
  1 29  1  0
  1 30  1  0
  1 31  1  0
  4 32  1  0
  4 33  1  0
  7 34  1  0
  7 35  1  0
  7 36  1  0
  9 37  1  0
 11 38  1  0
 15 39  1  0
 16 40  1  0
 19 41  1  0
 21 42  1  0
 22 43  1  0
 25 44  1  0
 25 45  1  0
M  END
>  <meeko>  (1) 
{"is_sidechain": false}

>  <source_group>  (1) 
BACE1-401 observed AD isoform

>  <source_system>  (1) 
BACE1_verubecestat_401

>  <source_run>  (1) 
alternate_401_seed1103_ex32

>  <source_seed>  (1) 
1103

>  <vina_pose_rank>  (1) 
1

>  <vina_affinity_kcal_mol>  (1) 
-9.5250000000000004

>  <vina_rmsd_to_crystal_angstrom>  (1) 
10.8817

$$$$
BACE1_verubecestat_401__alternate_401_seed1103_ex32__pose02
     RDKit          3D

 45 47  0  0  0  0  0  0  0  0999 V2000
   22.7120   11.2920   23.1490 C   0  0  0  0  0  0  0  0  0  0  0  0
   21.8930   11.2520   24.3760 N   0  0  0  0  0  0  0  0  0  0  0  0
   21.6190   10.0590   25.0810 C   0  0  0  0  0  0  0  0  0  0  0  0
   22.3030    8.9690   24.6140 N   0  0  0  0  0  0  0  0  0  0  0  0
   20.8150    9.9890   26.0970 N   0  0  0  0  0  0  0  0  0  0  0  0
   20.0190   11.1380   26.5270 C   0  0  2  0  0  0  0  0  0  0  0  0
   19.6260   10.7660   27.9590 C   0  0  0  0  0  0  0  0  0  0  0  0
   18.7550   11.2980   25.6970 C   0  0  0  0  0  0  0  0  0  0  0  0
   18.4590   10.4170   24.6580 C   0  0  0  0  0  0  0  0  0  0  0  0
   17.3240   10.5400   23.8880 C   0  0  0  0  0  0  0  0  0  0  0  0
   17.1450    9.5870   22.8770 N   0  0  0  0  0  0  0  0  0  0  0  0
   16.3970    8.4240   22.9190 C   0  0  0  0  0  0  0  0  0  0  0  0
   15.8600    7.9670   23.9200 O   0  0  0  0  0  0  0  0  0  0  0  0
   16.2310    7.7300   21.6190 C   0  0  0  0  0  0  0  0  0  0  0  0
   14.9690    7.3620   21.1880 C   0  0  0  0  0  0  0  0  0  0  0  0
   14.8730    6.7160   19.9680 C   0  0  0  0  0  0  0  0  0  0  0  0
   16.0140    6.4660   19.2300 C   0  0  0  0  0  0  0  0  0  0  0  0
   15.9710    5.8330   18.0450 F   0  0  0  0  0  0  0  0  0  0  0  0
   17.2260    6.8650   19.7460 C   0  0  0  0  0  0  0  0  0  0  0  0
   17.3510    7.4890   20.9290 N   0  0  0  0  0  0  0  0  0  0  0  0
   16.4080   11.5540   24.1430 C   0  0  0  0  0  0  0  0  0  0  0  0
   16.6870   12.4400   25.1680 C   0  0  0  0  0  0  0  0  0  0  0  0
   17.8460   12.3230   25.9110 C   0  0  0  0  0  0  0  0  0  0  0  0
   18.1100   13.2230   26.8930 F   0  0  0  0  0  0  0  0  0  0  0  0
   20.8900   12.3710   26.6120 C   0  0  0  0  0  0  0  0  0  0  0  0
   21.5170   12.8080   25.0100 S   0  0  0  0  0  0  0  0  0  0  0  0
   22.7760   13.4970   25.2320 O   0  0  0  0  0  0  0  0  0  0  0  0
   20.4800   13.2860   24.1500 O   0  0  0  0  0  0  0  0  0  0  0  0
   23.7767   11.3440   23.4204 H   0  0  0  0  0  0  0  0  0  0  0  0
   22.5287   10.3838   22.5560 H   0  0  0  0  0  0  0  0  0  0  0  0
   22.4411   12.1780   22.5560 H   0  0  0  0  0  0  0  0  0  0  0  0
   22.1790    8.0900   25.0410 H   0  0  0  0  0  0  0  0  0  0  0  0
   22.9190    9.0630   23.8520 H   0  0  0  0  0  0  0  0  0  0  0  0
   20.2364   11.3438   28.6686 H   0  0  0  0  0  0  0  0  0  0  0  0
   18.5622   10.9957   28.1187 H   0  0  0  0  0  0  0  0  0  0  0  0
   19.7970    9.6912   28.1187 H   0  0  0  0  0  0  0  0  0  0  0  0
   19.1572    9.5940   24.4456 H   0  0  0  0  0  0  0  0  0  0  0  0
   17.6100    9.7690   22.0290 H   0  0  0  0  0  0  0  0  0  0  0  0
   14.0751    7.5750   21.7926 H   0  0  0  0  0  0  0  0  0  0  0  0
   13.8902    6.4021   19.5865 H   0  0  0  0  0  0  0  0  0  0  0  0
   18.1359    6.6632   19.1617 H   0  0  0  0  0  0  0  0  0  0  0  0
   15.4882   11.6491   23.5472 H   0  0  0  0  0  0  0  0  0  0  0  0
   15.9765   13.2486   25.3946 H   0  0  0  0  0  0  0  0  0  0  0  0
   20.2945   13.2072   27.0071 H   0  0  0  0  0  0  0  0  0  0  0  0
   21.7392   12.1588   27.2783 H   0  0  0  0  0  0  0  0  0  0  0  0
  1  2  1  0
  2  3  1  0
  3  4  1  0
  3  5  2  0
  5  6  1  0
  6  7  1  1
  6  8  1  0
  8  9  2  0
  9 10  1  0
 10 11  1  0
 11 12  1  0
 12 13  2  0
 12 14  1  0
 14 15  2  0
 15 16  1  0
 16 17  2  0
 17 18  1  0
 17 19  1  0
 19 20  2  0
 10 21  2  0
 21 22  1  0
 22 23  2  0
 23 24  1  0
  6 25  1  0
 25 26  1  0
 26 27  2  0
 26 28  2  0
 26  2  1  0
 23  8  1  0
 20 14  1  0
  1 29  1  0
  1 30  1  0
  1 31  1  0
  4 32  1  0
  4 33  1  0
  7 34  1  0
  7 35  1  0
  7 36  1  0
  9 37  1  0
 11 38  1  0
 15 39  1  0
 16 40  1  0
 19 41  1  0
 21 42  1  0
 22 43  1  0
 25 44  1  0
 25 45  1  0
M  END
>  <meeko>  (2) 
{"is_sidechain": false}

>  <source_group>  (2) 
BACE1-401 observed AD isoform

>  <source_system>  (2) 
BACE1_verubecestat_401

>  <source_run>  (2) 
alternate_401_seed1103_ex32

>  <source_seed>  (2) 
1103

>  <vina_pose_rank>  (2) 
2

>  <vina_affinity_kcal_mol>  (2) 
-9.3810000000000002

>  <vina_rmsd_to_crystal_angstrom>  (2) 
9.4857999999999993

$$$$
BACE1_verubecestat_401__alternate_401_seed1103_ex32__pose03
     RDKit          3D

 45 47  0  0  0  0  0  0  0  0999 V2000
   14.3080    2.6050   18.1050 C   0  0  0  0  0  0  0  0  0  0  0  0
   14.3900    3.6810   19.1120 N   0  0  0  0  0  0  0  0  0  0  0  0
   14.0660    5.0270   18.8300 C   0  0  0  0  0  0  0  0  0  0  0  0
   13.5250    5.2180   17.5870 N   0  0  0  0  0  0  0  0  0  0  0  0
   14.2350    6.0010   19.6690 N   0  0  0  0  0  0  0  0  0  0  0  0
   14.9010    5.8010   20.9550 C   0  0  2  0  0  0  0  0  0  0  0  0
   14.4610    7.0250   21.7640 C   0  0  0  0  0  0  0  0  0  0  0  0
   16.4160    5.8180   20.8230 C   0  0  0  0  0  0  0  0  0  0  0  0
   17.2360    5.4790   21.8980 C   0  0  0  0  0  0  0  0  0  0  0  0
   18.6090    5.4890   21.8080 C   0  0  0  0  0  0  0  0  0  0  0  0
   19.3170    5.1250   22.9610 N   0  0  0  0  0  0  0  0  0  0  0  0
   19.3130    5.7420   24.1990 C   0  0  0  0  0  0  0  0  0  0  0  0
   18.7720    6.8100   24.4520 O   0  0  0  0  0  0  0  0  0  0  0  0
   20.0020    4.9960   25.2800 C   0  0  0  0  0  0  0  0  0  0  0  0
   19.9550    5.4650   26.5820 C   0  0  0  0  0  0  0  0  0  0  0  0
   20.6170    4.7310   27.5500 C   0  0  0  0  0  0  0  0  0  0  0  0
   21.2870    3.5750   27.1990 C   0  0  0  0  0  0  0  0  0  0  0  0
   21.9510    2.8350   28.1030 F   0  0  0  0  0  0  0  0  0  0  0  0
   21.2820    3.1930   25.8770 C   0  0  0  0  0  0  0  0  0  0  0  0
   20.6530    3.8870   24.9140 N   0  0  0  0  0  0  0  0  0  0  0  0
   19.2330    5.8210   20.6120 C   0  0  0  0  0  0  0  0  0  0  0  0
   18.4350    6.1640   19.5350 C   0  0  0  0  0  0  0  0  0  0  0  0
   17.0590    6.1810   19.6500 C   0  0  0  0  0  0  0  0  0  0  0  0
   16.2990    6.5490   18.5860 F   0  0  0  0  0  0  0  0  0  0  0  0
   14.3320    4.5830   21.6500 C   0  0  0  0  0  0  0  0  0  0  0  0
   14.6680    3.1130   20.7140 S   0  0  0  0  0  0  0  0  0  0  0  0
   13.6070    2.1720   21.0260 O   0  0  0  0  0  0  0  0  0  0  0  0
   16.0600    2.7880   20.7250 O   0  0  0  0  0  0  0  0  0  0  0  0
   14.2339    1.6322   18.6131 H   0  0  0  0  0  0  0  0  0  0  0  0
   13.4190    2.7587   17.4757 H   0  0  0  0  0  0  0  0  0  0  0  0
   15.2101    2.6222   17.4757 H   0  0  0  0  0  0  0  0  0  0  0  0
   13.2650    6.1230   17.2970 H   0  0  0  0  0  0  0  0  0  0  0  0
   13.3940    4.4520   16.9830 H   0  0  0  0  0  0  0  0  0  0  0  0
   14.5410    6.8025   22.8383 H   0  0  0  0  0  0  0  0  0  0  0  0
   15.1082    7.8796   21.5173 H   0  0  0  0  0  0  0  0  0  0  0  0
   13.4178    7.2719   21.5173 H   0  0  0  0  0  0  0  0  0  0  0  0
   16.7689    5.1934   22.8521 H   0  0  0  0  0  0  0  0  0  0  0  0
   19.8900    4.3280   22.8790 H   0  0  0  0  0  0  0  0  0  0  0  0
   19.4116    6.3868   26.8371 H   0  0  0  0  0  0  0  0  0  0  0  0
   20.6099    5.0673   28.5973 H   0  0  0  0  0  0  0  0  0  0  0  0
   21.8189    2.2752   25.5952 H   0  0  0  0  0  0  0  0  0  0  0  0
   20.3294    5.8115   20.5238 H   0  0  0  0  0  0  0  0  0  0  0  0
   18.9028    6.4266   18.5747 H   0  0  0  0  0  0  0  0  0  0  0  0
   14.7890    4.4892   22.6462 H   0  0  0  0  0  0  0  0  0  0  0  0
   13.2424    4.7038   21.7400 H   0  0  0  0  0  0  0  0  0  0  0  0
  1  2  1  0
  2  3  1  0
  3  4  1  0
  3  5  2  0
  5  6  1  0
  6  7  1  1
  6  8  1  0
  8  9  2  0
  9 10  1  0
 10 11  1  0
 11 12  1  0
 12 13  2  0
 12 14  1  0
 14 15  2  0
 15 16  1  0
 16 17  2  0
 17 18  1  0
 17 19  1  0
 19 20  2  0
 10 21  2  0
 21 22  1  0
 22 23  2  0
 23 24  1  0
  6 25  1  0
 25 26  1  0
 26 27  2  0
 26 28  2  0
 26  2  1  0
 23  8  1  0
 20 14  1  0
  1 29  1  0
  1 30  1  0
  1 31  1  0
  4 32  1  0
  4 33  1  0
  7 34  1  0
  7 35  1  0
  7 36  1  0
  9 37  1  0
 11 38  1  0
 15 39  1  0
 16 40  1  0
 19 41  1  0
 21 42  1  0
 22 43  1  0
 25 44  1  0
 25 45  1  0
M  END
>  <meeko>  (3) 
{"is_sidechain": false}

>  <source_group>  (3) 
BACE1-401 observed AD isoform

>  <source_system>  (3) 
BACE1_verubecestat_401

>  <source_run>  (3) 
alternate_401_seed1103_ex32

>  <source_seed>  (3) 
1103

>  <vina_pose_rank>  (3) 
3

>  <vina_affinity_kcal_mol>  (3) 
-9.2100000000000009

>  <vina_rmsd_to_crystal_angstrom>  (3) 
10.3432

$$$$
BACE1_verubecestat_401__alternate_401_seed1103_ex32__pose04
     RDKit          3D

 45 47  0  0  0  0  0  0  0  0999 V2000
   20.2090   12.5450   30.4820 C   0  0  0  0  0  0  0  0  0  0  0  0
   19.4470   12.6460   29.2220 N   0  0  0  0  0  0  0  0  0  0  0  0
   18.2690   11.9070   28.9740 C   0  0  0  0  0  0  0  0  0  0  0  0
   17.8130   11.2070   30.0580 N   0  0  0  0  0  0  0  0  0  0  0  0
   17.6470   11.9010   27.8350 N   0  0  0  0  0  0  0  0  0  0  0  0
   18.1940   12.5750   26.6580 C   0  0  2  0  0  0  0  0  0  0  0  0
   16.9720   12.7160   25.7460 C   0  0  0  0  0  0  0  0  0  0  0  0
   19.2400   11.7280   25.9500 C   0  0  0  0  0  0  0  0  0  0  0  0
   19.4130   10.3820   26.2680 C   0  0  0  0  0  0  0  0  0  0  0  0
   20.3530    9.5930   25.6450 C   0  0  0  0  0  0  0  0  0  0  0  0
   20.4220    8.2550   26.0570 N   0  0  0  0  0  0  0  0  0  0  0  0
   19.6630    7.1840   25.6200 C   0  0  0  0  0  0  0  0  0  0  0  0
   18.6960    7.2640   24.8740 O   0  0  0  0  0  0  0  0  0  0  0  0
   20.1160    5.8530   26.0920 C   0  0  0  0  0  0  0  0  0  0  0  0
   20.0570    5.5400   27.4390 C   0  0  0  0  0  0  0  0  0  0  0  0
   20.4950    4.2850   27.8230 C   0  0  0  0  0  0  0  0  0  0  0  0
   20.9640    3.3990   26.8730 C   0  0  0  0  0  0  0  0  0  0  0  0
   21.4080    2.1730   27.2000 F   0  0  0  0  0  0  0  0  0  0  0  0
   20.9890    3.8040   25.5580 C   0  0  0  0  0  0  0  0  0  0  0  0
   20.5770    5.0170   25.1550 N   0  0  0  0  0  0  0  0  0  0  0  0
   21.1610   10.1180   24.6450 C   0  0  0  0  0  0  0  0  0  0  0  0
   21.0060   11.4530   24.3180 C   0  0  0  0  0  0  0  0  0  0  0  0
   20.0800   12.2410   24.9730 C   0  0  0  0  0  0  0  0  0  0  0  0
   19.9680   13.5560   24.6540 F   0  0  0  0  0  0  0  0  0  0  0  0
   18.6410   13.9730   27.0210 C   0  0  0  0  0  0  0  0  0  0  0  0
   19.9730   13.9210   28.1930 S   0  0  0  0  0  0  0  0  0  0  0  0
   19.8970   15.1520   28.9610 O   0  0  0  0  0  0  0  0  0  0  0  0
   21.1730   13.4140   27.6050 O   0  0  0  0  0  0  0  0  0  0  0  0
   19.5206   12.6362   31.3351 H   0  0  0  0  0  0  0  0  0  0  0  0
   20.7191   11.5714   30.5250 H   0  0  0  0  0  0  0  0  0  0  0  0
   20.9552   13.3521   30.5250 H   0  0  0  0  0  0  0  0  0  0  0  0
   16.9970   10.6610   29.9840 H   0  0  0  0  0  0  0  0  0  0  0  0
   18.3010   11.2490   30.9130 H   0  0  0  0  0  0  0  0  0  0  0  0
   16.0658   12.8206   26.3607 H   0  0  0  0  0  0  0  0  0  0  0  0
   17.0891   13.6066   25.1111 H   0  0  0  0  0  0  0  0  0  0  0  0
   16.8832   11.8221   25.1111 H   0  0  0  0  0  0  0  0  0  0  0  0
   18.7755    9.9343   27.0446 H   0  0  0  0  0  0  0  0  0  0  0  0
   21.0970    8.0520   26.7440 H   0  0  0  0  0  0  0  0  0  0  0  0
   19.6762    6.2619   28.1765 H   0  0  0  0  0  0  0  0  0  0  0  0
   20.4697    3.9933   28.8833 H   0  0  0  0  0  0  0  0  0  0  0  0
   21.3645    3.1003   24.8005 H   0  0  0  0  0  0  0  0  0  0  0  0
   21.9023    9.4908   24.1283 H   0  0  0  0  0  0  0  0  0  0  0  0
   21.6289   11.8931   23.5253 H   0  0  0  0  0  0  0  0  0  0  0  0
   18.9799   14.4913   26.1119 H   0  0  0  0  0  0  0  0  0  0  0  0
   17.7934   14.5094   27.4724 H   0  0  0  0  0  0  0  0  0  0  0  0
  1  2  1  0
  2  3  1  0
  3  4  1  0
  3  5  2  0
  5  6  1  0
  6  7  1  6
  6  8  1  0
  8  9  2  0
  9 10  1  0
 10 11  1  0
 11 12  1  0
 12 13  2  0
 12 14  1  0
 14 15  2  0
 15 16  1  0
 16 17  2  0
 17 18  1  0
 17 19  1  0
 19 20  2  0
 10 21  2  0
 21 22  1  0
 22 23  2  0
 23 24  1  0
  6 25  1  0
 25 26  1  0
 26 27  2  0
 26 28  2  0
 26  2  1  0
 23  8  1  0
 20 14  1  0
  1 29  1  0
  1 30  1  0
  1 31  1  0
  4 32  1  0
  4 33  1  0
  7 34  1  0
  7 35  1  0
  7 36  1  0
  9 37  1  0
 11 38  1  0
 15 39  1  0
 16 40  1  0
 19 41  1  0
 21 42  1  0
 22 43  1  0
 25 44  1  0
 25 45  1  0
M  END
>  <meeko>  (4) 
{"is_sidechain": false}

>  <source_group>  (4) 
BACE1-401 observed AD isoform

>  <source_system>  (4) 
BACE1_verubecestat_401

>  <source_run>  (4) 
alternate_401_seed1103_ex32

>  <source_seed>  (4) 
1103

>  <vina_pose_rank>  (4) 
4

>  <vina_affinity_kcal_mol>  (4) 
-9.0999999999999996

>  <vina_rmsd_to_crystal_angstrom>  (4) 
8.4097000000000008

$$$$
BACE1_verubecestat_401__alternate_401_seed1103_ex32__pose05
     RDKit          3D

 45 47  0  0  0  0  0  0  0  0999 V2000
   28.3910   13.5360   21.8200 C   0  0  0  0  0  0  0  0  0  0  0  0
   27.2640   13.2950   20.8970 N   0  0  0  0  0  0  0  0  0  0  0  0
   26.2530   14.2500   20.6500 C   0  0  0  0  0  0  0  0  0  0  0  0
   26.4920   15.4720   21.2220 N   0  0  0  0  0  0  0  0  0  0  0  0
   25.2010   14.0170   19.9290 N   0  0  0  0  0  0  0  0  0  0  0  0
   24.9090   12.6840   19.4040 C   0  0  2  0  0  0  0  0  0  0  0  0
   23.9090   12.9700   18.2800 C   0  0  0  0  0  0  0  0  0  0  0  0
   24.2420   11.7950   20.4410 C   0  0  0  0  0  0  0  0  0  0  0  0
   24.0530   12.2340   21.7510 C   0  0  0  0  0  0  0  0  0  0  0  0
   23.4550   11.4500   22.7110 C   0  0  0  0  0  0  0  0  0  0  0  0
   23.3240   12.0110   23.9880 N   0  0  0  0  0  0  0  0  0  0  0  0
   22.3720   12.9090   24.4360 C   0  0  0  0  0  0  0  0  0  0  0  0
   21.5440   13.4690   23.7290 O   0  0  0  0  0  0  0  0  0  0  0  0
   22.3710   13.1550   25.8990 C   0  0  0  0  0  0  0  0  0  0  0  0
   21.3580   12.6360   26.6860 C   0  0  0  0  0  0  0  0  0  0  0  0
   21.4060   12.8980   28.0440 C   0  0  0  0  0  0  0  0  0  0  0  0
   22.4420   13.6490   28.5640 C   0  0  0  0  0  0  0  0  0  0  0  0
   22.5260   13.9360   29.8740 F   0  0  0  0  0  0  0  0  0  0  0  0
   23.4010   14.1260   27.6990 C   0  0  0  0  0  0  0  0  0  0  0  0
   23.3780   13.8940   26.3760 N   0  0  0  0  0  0  0  0  0  0  0  0
   22.9900   10.1800   22.3930 C   0  0  0  0  0  0  0  0  0  0  0  0
   23.1720    9.7260   21.0980 C   0  0  0  0  0  0  0  0  0  0  0  0
   23.8030   10.5120   20.1540 C   0  0  0  0  0  0  0  0  0  0  0  0
   23.9950   10.0320   18.8980 F   0  0  0  0  0  0  0  0  0  0  0  0
   26.1460   12.0990   18.7590 C   0  0  0  0  0  0  0  0  0  0  0  0
   27.4270   11.8580   19.9630 S   0  0  0  0  0  0  0  0  0  0  0  0
   28.6880   11.9500   19.2490 O   0  0  0  0  0  0  0  0  0  0  0  0
   27.0980   10.8140   20.8820 O   0  0  0  0  0  0  0  0  0  0  0  0
   28.0369   13.4603   22.8587 H   0  0  0  0  0  0  0  0  0  0  0  0
   29.1757   12.7853   21.6445 H   0  0  0  0  0  0  0  0  0  0  0  0
   28.8000   14.5419   21.6445 H   0  0  0  0  0  0  0  0  0  0  0  0
   25.8440   16.2040   21.1060 H   0  0  0  0  0  0  0  0  0  0  0  0
   27.3110   15.6180   21.7480 H   0  0  0  0  0  0  0  0  0  0  0  0
   22.9377   13.2478   18.7153 H   0  0  0  0  0  0  0  0  0  0  0  0
   24.2825   13.7973   17.6587 H   0  0  0  0  0  0  0  0  0  0  0  0
   23.7885   12.0703   17.6587 H   0  0  0  0  0  0  0  0  0  0  0  0
   24.3940   13.2428   22.0268 H   0  0  0  0  0  0  0  0  0  0  0  0
   23.9950   11.7300   24.6510 H   0  0  0  0  0  0  0  0  0  0  0  0
   20.5452   12.0377   26.2486 H   0  0  0  0  0  0  0  0  0  0  0  0
   20.6203   12.5088   28.7082 H   0  0  0  0  0  0  0  0  0  0  0  0
   24.2258   14.7260   28.1110 H   0  0  0  0  0  0  0  0  0  0  0  0
   22.4920    9.5538   23.1479 H   0  0  0  0  0  0  0  0  0  0  0  0
   22.8093    8.7262   20.8172 H   0  0  0  0  0  0  0  0  0  0  0  0
   25.8920   11.1306   18.3033 H   0  0  0  0  0  0  0  0  0  0  0  0
   26.5091   12.7985   17.9916 H   0  0  0  0  0  0  0  0  0  0  0  0
  1  2  1  0
  2  3  1  0
  3  4  1  0
  3  5  2  0
  5  6  1  0
  6  7  1  6
  6  8  1  0
  8  9  2  0
  9 10  1  0
 10 11  1  0
 11 12  1  0
 12 13  2  0
 12 14  1  0
 14 15  2  0
 15 16  1  0
 16 17  2  0
 17 18  1  0
 17 19  1  0
 19 20  2  0
 10 21  2  0
 21 22  1  0
 22 23  2  0
 23 24  1  0
  6 25  1  0
 25 26  1  0
 26 27  2  0
 26 28  2  0
 26  2  1  0
 23  8  1  0
 20 14  1  0
  1 29  1  0
  1 30  1  0
  1 31  1  0
  4 32  1  0
  4 33  1  0
  7 34  1  0
  7 35  1  0
  7 36  1  0
  9 37  1  0
 11 38  1  0
 15 39  1  0
 16 40  1  0
 19 41  1  0
 21 42  1  0
 22 43  1  0
 25 44  1  0
 25 45  1  0
M  END
>  <meeko>  (5) 
{"is_sidechain": false}

>  <source_group>  (5) 
BACE1-401 observed AD isoform

>  <source_system>  (5) 
BACE1_verubecestat_401

>  <source_run>  (5) 
alternate_401_seed1103_ex32

>  <source_seed>  (5) 
1103

>  <vina_pose_rank>  (5) 
5

>  <vina_affinity_kcal_mol>  (5) 
-9.0429999999999993

>  <vina_rmsd_to_crystal_angstrom>  (5) 
7.1516999999999999

$$$$
BACE1_verubecestat_401__alternate_401_seed1103_ex32__pose06
     RDKit          3D

 45 47  0  0  0  0  0  0  0  0999 V2000
   15.3100    2.1720   20.3530 C   0  0  0  0  0  0  0  0  0  0  0  0
   15.3860    3.4500   21.0880 N   0  0  0  0  0  0  0  0  0  0  0  0
   15.1150    4.7000   20.4890 C   0  0  0  0  0  0  0  0  0  0  0  0
   14.6300    4.6110   19.2120 N   0  0  0  0  0  0  0  0  0  0  0  0
   15.2820    5.8390   21.0880 N   0  0  0  0  0  0  0  0  0  0  0  0
   15.8890    5.9270   22.4150 C   0  0  2  0  0  0  0  0  0  0  0  0
   15.4570    7.3130   22.8990 C   0  0  0  0  0  0  0  0  0  0  0  0
   17.4080    5.8800   22.3520 C   0  0  0  0  0  0  0  0  0  0  0  0
   18.1540    5.2950   23.3740 C   0  0  0  0  0  0  0  0  0  0  0  0
   19.5290    5.2420   23.3450 C   0  0  0  0  0  0  0  0  0  0  0  0
   20.1570    4.6240   24.4340 N   0  0  0  0  0  0  0  0  0  0  0  0
   21.2740    3.8090   24.4300 C   0  0  0  0  0  0  0  0  0  0  0  0
   21.8330    3.3840   23.4270 O   0  0  0  0  0  0  0  0  0  0  0  0
   21.8230    3.4800   25.7680 C   0  0  0  0  0  0  0  0  0  0  0  0
   21.2210    3.9880   26.9060 C   0  0  0  0  0  0  0  0  0  0  0  0
   21.7750    3.6500   28.1280 C   0  0  0  0  0  0  0  0  0  0  0  0
   22.8870    2.8320   28.1760 C   0  0  0  0  0  0  0  0  0  0  0  0
   23.4660    2.4850   29.3390 F   0  0  0  0  0  0  0  0  0  0  0  0
   23.4190    2.3810   26.9890 C   0  0  0  0  0  0  0  0  0  0  0  0
   22.9060    2.6960   25.7890 N   0  0  0  0  0  0  0  0  0  0  0  0
   20.2300    5.7590   22.2630 C   0  0  0  0  0  0  0  0  0  0  0  0
   19.5060    6.3470   21.2400 C   0  0  0  0  0  0  0  0  0  0  0  0
   18.1290    6.4220   21.2980 C   0  0  0  0  0  0  0  0  0  0  0  0
   17.4440    7.0300   20.2960 F   0  0  0  0  0  0  0  0  0  0  0  0
   15.2560    4.9150   23.3440 C   0  0  0  0  0  0  0  0  0  0  0  0
   15.5820    3.2620   22.7880 S   0  0  0  0  0  0  0  0  0  0  0  0
   14.4810    2.4410   23.2590 O   0  0  0  0  0  0  0  0  0  0  0  0
   16.9610    2.9180   22.9370 O   0  0  0  0  0  0  0  0  0  0  0  0
   15.2605    1.3391   21.0699 H   0  0  0  0  0  0  0  0  0  0  0  0
   14.4099    2.1656   19.7207 H   0  0  0  0  0  0  0  0  0  0  0  0
   16.2030    2.0590   19.7207 H   0  0  0  0  0  0  0  0  0  0  0  0
   14.4110    5.4290   18.7100 H   0  0  0  0  0  0  0  0  0  0  0  0
   14.4990    3.7280   18.7950 H   0  0  0  0  0  0  0  0  0  0  0  0
   15.4511    7.3319   23.9988 H   0  0  0  0  0  0  0  0  0  0  0  0
   16.1621    8.0689   22.5230 H   0  0  0  0  0  0  0  0  0  0  0  0
   14.4472    7.5344   22.5230 H   0  0  0  0  0  0  0  0  0  0  0  0
   17.6247    4.8601   24.2346 H   0  0  0  0  0  0  0  0  0  0  0  0
   19.7500    4.7920   25.3150 H   0  0  0  0  0  0  0  0  0  0  0  0
   20.3348    4.6365   26.8414 H   0  0  0  0  0  0  0  0  0  0  0  0
   21.3309    4.0318   29.0591 H   0  0  0  0  0  0  0  0  0  0  0  0
   24.3063    1.7319   27.0255 H   0  0  0  0  0  0  0  0  0  0  0  0
   21.3277    5.7029   22.2203 H   0  0  0  0  0  0  0  0  0  0  0  0
   20.0355    6.7602   20.3688 H   0  0  0  0  0  0  0  0  0  0  0  0
   15.6704    5.0442   24.3547 H   0  0  0  0  0  0  0  0  0  0  0  0
   14.1679    5.0764   23.3537 H   0  0  0  0  0  0  0  0  0  0  0  0
  1  2  1  0
  2  3  1  0
  3  4  1  0
  3  5  2  0
  5  6  1  0
  6  7  1  1
  6  8  1  0
  8  9  2  0
  9 10  1  0
 10 11  1  0
 11 12  1  0
 12 13  2  0
 12 14  1  0
 14 15  2  0
 15 16  1  0
 16 17  2  0
 17 18  1  0
 17 19  1  0
 19 20  2  0
 10 21  2  0
 21 22  1  0
 22 23  2  0
 23 24  1  0
  6 25  1  0
 25 26  1  0
 26 27  2  0
 26 28  2  0
 26  2  1  0
 23  8  1  0
 20 14  1  0
  1 29  1  0
  1 30  1  0
  1 31  1  0
  4 32  1  0
  4 33  1  0
  7 34  1  0
  7 35  1  0
  7 36  1  0
  9 37  1  0
 11 38  1  0
 15 39  1  0
 16 40  1  0
 19 41  1  0
 21 42  1  0
 22 43  1  0
 25 44  1  0
 25 45  1  0
M  END
>  <meeko>  (6) 
{"is_sidechain": false}

>  <source_group>  (6) 
BACE1-401 observed AD isoform

>  <source_system>  (6) 
BACE1_verubecestat_401

>  <source_run>  (6) 
alternate_401_seed1103_ex32

>  <source_seed>  (6) 
1103

>  <vina_pose_rank>  (6) 
6

>  <vina_affinity_kcal_mol>  (6) 
-8.8339999999999996

>  <vina_rmsd_to_crystal_angstrom>  (6) 
9.6805000000000003

$$$$
BACE1_verubecestat_401__alternate_401_seed1103_ex32__pose07
     RDKit          3D

 45 47  0  0  0  0  0  0  0  0999 V2000
   19.2810    5.4140   26.6370 C   0  0  0  0  0  0  0  0  0  0  0  0
   19.7000    5.9410   25.3230 N   0  0  0  0  0  0  0  0  0  0  0  0
   20.3200    7.2000   25.1600 C   0  0  0  0  0  0  0  0  0  0  0  0
   20.6350    7.8200   26.3390 N   0  0  0  0  0  0  0  0  0  0  0  0
   20.5950    7.7240   24.0060 N   0  0  0  0  0  0  0  0  0  0  0  0
   20.1690    7.0980   22.7550 C   0  0  2  0  0  0  0  0  0  0  0  0
   21.0800    7.7550   21.7150 C   0  0  0  0  0  0  0  0  0  0  0  0
   18.7220    7.4240   22.4180 C   0  0  0  0  0  0  0  0  0  0  0  0
   18.0170    6.6770   21.4760 C   0  0  0  0  0  0  0  0  0  0  0  0
   16.7080    6.9510   21.1490 C   0  0  0  0  0  0  0  0  0  0  0  0
   16.1140    6.1210   20.1890 N   0  0  0  0  0  0  0  0  0  0  0  0
   14.8110    5.6580   20.1450 C   0  0  0  0  0  0  0  0  0  0  0  0
   13.9820    5.8030   21.0340 O   0  0  0  0  0  0  0  0  0  0  0  0
   14.4260    4.9700   18.8890 C   0  0  0  0  0  0  0  0  0  0  0  0
   13.8800    5.6950   17.8430 C   0  0  0  0  0  0  0  0  0  0  0  0
   13.5370    5.0020   16.6960 C   0  0  0  0  0  0  0  0  0  0  0  0
   13.7480    3.6390   16.6260 C   0  0  0  0  0  0  0  0  0  0  0  0
   13.4220    2.9220   15.5370 F   0  0  0  0  0  0  0  0  0  0  0  0
   14.2910    3.0050   17.7210 C   0  0  0  0  0  0  0  0  0  0  0  0
   14.6280    3.6490   18.8500 N   0  0  0  0  0  0  0  0  0  0  0  0
   16.0290    7.9890   21.7750 C   0  0  0  0  0  0  0  0  0  0  0  0
   16.7150    8.7440   22.7100 C   0  0  0  0  0  0  0  0  0  0  0  0
   18.0380    8.4770   23.0050 C   0  0  0  0  0  0  0  0  0  0  0  0
   18.6970    9.2510   23.9050 F   0  0  0  0  0  0  0  0  0  0  0  0
   20.5060    5.6230   22.7720 C   0  0  0  0  0  0  0  0  0  0  0  0
   19.5990    4.7870   24.0490 S   0  0  0  0  0  0  0  0  0  0  0  0
   20.4000    3.6410   24.4420 O   0  0  0  0  0  0  0  0  0  0  0  0
   18.2020    4.7270   23.7510 O   0  0  0  0  0  0  0  0  0  0  0  0
   19.7514    6.0056   27.4362 H   0  0  0  0  0  0  0  0  0  0  0  0
   18.1867    5.4808   26.7269 H   0  0  0  0  0  0  0  0  0  0  0  0
   19.5928    4.3629   26.7269 H   0  0  0  0  0  0  0  0  0  0  0  0
   21.0710    8.7030   26.3290 H   0  0  0  0  0  0  0  0  0  0  0  0
   20.4270    7.3830   27.1960 H   0  0  0  0  0  0  0  0  0  0  0  0
   21.8697    8.3245   22.2269 H   0  0  0  0  0  0  0  0  0  0  0  0
   21.5378    6.9778   21.0854 H   0  0  0  0  0  0  0  0  0  0  0  0
   20.4871    8.4348   21.0854 H   0  0  0  0  0  0  0  0  0  0  0  0
   18.5244    5.8388   20.9761 H   0  0  0  0  0  0  0  0  0  0  0  0
   16.6980    5.8310   19.4520 H   0  0  0  0  0  0  0  0  0  0  0  0
   13.7249    6.7812   17.9213 H   0  0  0  0  0  0  0  0  0  0  0  0
   13.0968    5.5358   15.8409 H   0  0  0  0  0  0  0  0  0  0  0  0
   14.4567    1.9188   17.6684 H   0  0  0  0  0  0  0  0  0  0  0  0
   14.9774    8.2042   21.5345 H   0  0  0  0  0  0  0  0  0  0  0  0
   16.1999    9.5680   23.2254 H   0  0  0  0  0  0  0  0  0  0  0  0
   20.2476    5.1823   21.7978 H   0  0  0  0  0  0  0  0  0  0  0  0
   21.5821    5.5082   22.9693 H   0  0  0  0  0  0  0  0  0  0  0  0
  1  2  1  0
  2  3  1  0
  3  4  1  0
  3  5  2  0
  5  6  1  0
  6  7  1  6
  6  8  1  0
  8  9  2  0
  9 10  1  0
 10 11  1  0
 11 12  1  0
 12 13  2  0
 12 14  1  0
 14 15  2  0
 15 16  1  0
 16 17  2  0
 17 18  1  0
 17 19  1  0
 19 20  2  0
 10 21  2  0
 21 22  1  0
 22 23  2  0
 23 24  1  0
  6 25  1  0
 25 26  1  0
 26 27  2  0
 26 28  2  0
 26  2  1  0
 23  8  1  0
 20 14  1  0
  1 29  1  0
  1 30  1  0
  1 31  1  0
  4 32  1  0
  4 33  1  0
  7 34  1  0
  7 35  1  0
  7 36  1  0
  9 37  1  0
 11 38  1  0
 15 39  1  0
 16 40  1  0
 19 41  1  0
 21 42  1  0
 22 43  1  0
 25 44  1  0
 25 45  1  0
M  END
>  <meeko>  (7) 
{"is_sidechain": false}

>  <source_group>  (7) 
BACE1-401 observed AD isoform

>  <source_system>  (7) 
BACE1_verubecestat_401

>  <source_run>  (7) 
alternate_401_seed1103_ex32

>  <source_seed>  (7) 
1103

>  <vina_pose_rank>  (7) 
7

>  <vina_affinity_kcal_mol>  (7) 
-8.7490000000000006

>  <vina_rmsd_to_crystal_angstrom>  (7) 
11.2338

$$$$
BACE1_verubecestat_401__alternate_401_seed1103_ex32__pose08
     RDKit          3D

 45 47  0  0  0  0  0  0  0  0999 V2000
   19.3520    4.8410   24.0970 C   0  0  0  0  0  0  0  0  0  0  0  0
   18.6230    5.2830   22.8920 N   0  0  0  0  0  0  0  0  0  0  0  0
   19.2550    5.9170   21.7990 C   0  0  0  0  0  0  0  0  0  0  0  0
   20.6200    5.9490   21.8890 N   0  0  0  0  0  0  0  0  0  0  0  0
   18.6160    6.4080   20.7820 N   0  0  0  0  0  0  0  0  0  0  0  0
   17.1550    6.4530   20.7410 C   0  0  2  0  0  0  0  0  0  0  0  0
   16.8600    6.6410   19.2510 C   0  0  0  0  0  0  0  0  0  0  0  0
   16.6000    7.6450   21.5060 C   0  0  0  0  0  0  0  0  0  0  0  0
   17.4440    8.5180   22.1910 C   0  0  0  0  0  0  0  0  0  0  0  0
   16.9680    9.6020   22.8930 C   0  0  0  0  0  0  0  0  0  0  0  0
   17.9230   10.4020   23.5340 N   0  0  0  0  0  0  0  0  0  0  0  0
   17.8140   11.0620   24.7460 C   0  0  0  0  0  0  0  0  0  0  0  0
   16.7880   11.1560   25.4070 O   0  0  0  0  0  0  0  0  0  0  0  0
   19.0730   11.6560   25.2590 C   0  0  0  0  0  0  0  0  0  0  0  0
   19.7810   12.5530   24.4790 C   0  0  0  0  0  0  0  0  0  0  0  0
   20.9500   13.0750   25.0060 C   0  0  0  0  0  0  0  0  0  0  0  0
   21.3640   12.6960   26.2680 C   0  0  0  0  0  0  0  0  0  0  0  0
   22.4960   13.1690   26.8180 F   0  0  0  0  0  0  0  0  0  0  0  0
   20.5940   11.7920   26.9650 C   0  0  0  0  0  0  0  0  0  0  0  0
   19.4590   11.2650   26.4770 N   0  0  0  0  0  0  0  0  0  0  0  0
   15.6070    9.8780   22.9240 C   0  0  0  0  0  0  0  0  0  0  0  0
   14.7540    9.0200   22.2530 C   0  0  0  0  0  0  0  0  0  0  0  0
   15.2420    7.9180   21.5790 C   0  0  0  0  0  0  0  0  0  0  0  0
   14.3820    7.0750   20.9530 F   0  0  0  0  0  0  0  0  0  0  0  0
   16.5830    5.1120   21.1410 C   0  0  0  0  0  0  0  0  0  0  0  0
   16.9930    4.7320   22.8260 S   0  0  0  0  0  0  0  0  0  0  0  0
   17.0240    3.2840   22.9280 O   0  0  0  0  0  0  0  0  0  0  0  0
   16.3060    5.5870   23.7420 O   0  0  0  0  0  0  0  0  0  0  0  0
   18.8091    5.1701   24.9953 H   0  0  0  0  0  0  0  0  0  0  0  0
   19.4294    3.7437   24.0968 H   0  0  0  0  0  0  0  0  0  0  0  0
   20.3607    5.2797   24.0968 H   0  0  0  0  0  0  0  0  0  0  0  0
   21.1510    6.3700   21.1750 H   0  0  0  0  0  0  0  0  0  0  0  0
   21.0720    5.5500   22.6680 H   0  0  0  0  0  0  0  0  0  0  0  0
   15.9379    7.2286   19.1311 H   0  0  0  0  0  0  0  0  0  0  0  0
   17.6977    7.1721   18.7755 H   0  0  0  0  0  0  0  0  0  0  0  0
   16.7324    5.6573   18.7755 H   0  0  0  0  0  0  0  0  0  0  0  0
   18.5283    8.3340   22.1697 H   0  0  0  0  0  0  0  0  0  0  0  0
   18.7810   10.5080   23.0630 H   0  0  0  0  0  0  0  0  0  0  0  0
   19.4283   12.8407   23.4776 H   0  0  0  0  0  0  0  0  0  0  0  0
   21.5476   13.7898   24.4211 H   0  0  0  0  0  0  0  0  0  0  0  0
   20.9240   11.4870   27.9690 H   0  0  0  0  0  0  0  0  0  0  0  0
   15.2189   10.7529   23.4661 H   0  0  0  0  0  0  0  0  0  0  0  0
   13.6720    9.2184   22.2564 H   0  0  0  0  0  0  0  0  0  0  0  0
   15.4887    5.1396   21.0331 H   0  0  0  0  0  0  0  0  0  0  0  0
   17.0114    4.3363   20.4893 H   0  0  0  0  0  0  0  0  0  0  0  0
  1  2  1  0
  2  3  1  0
  3  4  1  0
  3  5  2  0
  5  6  1  0
  6  7  1  6
  6  8  1  0
  8  9  2  0
  9 10  1  0
 10 11  1  0
 11 12  1  0
 12 13  2  0
 12 14  1  0
 14 15  2  0
 15 16  1  0
 16 17  2  0
 17 18  1  0
 17 19  1  0
 19 20  2  0
 10 21  2  0
 21 22  1  0
 22 23  2  0
 23 24  1  0
  6 25  1  0
 25 26  1  0
 26 27  2  0
 26 28  2  0
 26  2  1  0
 23  8  1  0
 20 14  1  0
  1 29  1  0
  1 30  1  0
  1 31  1  0
  4 32  1  0
  4 33  1  0
  7 34  1  0
  7 35  1  0
  7 36  1  0
  9 37  1  0
 11 38  1  0
 15 39  1  0
 16 40  1  0
 19 41  1  0
 21 42  1  0
 22 43  1  0
 25 44  1  0
 25 45  1  0
M  END
>  <meeko>  (8) 
{"is_sidechain": false}

>  <source_group>  (8) 
BACE1-401 observed AD isoform

>  <source_system>  (8) 
BACE1_verubecestat_401

>  <source_run>  (8) 
alternate_401_seed1103_ex32

>  <source_seed>  (8) 
1103

>  <vina_pose_rank>  (8) 
8

>  <vina_affinity_kcal_mol>  (8) 
-8.7230000000000008

>  <vina_rmsd_to_crystal_angstrom>  (8) 
8.8890999999999991

$$$$
BACE1_verubecestat_401__alternate_401_seed1103_ex32__pose09
     RDKit          3D

 45 47  0  0  0  0  0  0  0  0999 V2000
   27.4810   13.8350   23.1920 C   0  0  0  0  0  0  0  0  0  0  0  0
   26.4950   13.5400   22.1330 N   0  0  0  0  0  0  0  0  0  0  0  0
   25.3780   14.3640   21.8690 C   0  0  0  0  0  0  0  0  0  0  0  0
   25.3730   15.5360   22.5780 N   0  0  0  0  0  0  0  0  0  0  0  0
   24.4460   14.0660   21.0190 N   0  0  0  0  0  0  0  0  0  0  0  0
   24.4120   12.7720   20.3390 C   0  0  2  0  0  0  0  0  0  0  0  0
   23.4900   13.0350   19.1450 C   0  0  0  0  0  0  0  0  0  0  0  0
   23.7930   11.6870   21.2070 C   0  0  0  0  0  0  0  0  0  0  0  0
   23.3540   11.9640   22.5010 C   0  0  0  0  0  0  0  0  0  0  0  0
   22.7930   11.0020   23.3100 C   0  0  0  0  0  0  0  0  0  0  0  0
   22.3910   11.4120   24.5880 N   0  0  0  0  0  0  0  0  0  0  0  0
   21.4390   12.3580   24.9240 C   0  0  0  0  0  0  0  0  0  0  0  0
   20.8720   13.0990   24.1320 O   0  0  0  0  0  0  0  0  0  0  0  0
   21.0880   12.4190   26.3640 C   0  0  0  0  0  0  0  0  0  0  0  0
   20.0470   13.2270   26.7880 C   0  0  0  0  0  0  0  0  0  0  0  0
   19.7640   13.2460   28.1420 C   0  0  0  0  0  0  0  0  0  0  0  0
   20.5080   12.4730   29.0120 C   0  0  0  0  0  0  0  0  0  0  0  0
   20.2760   12.4670   30.3360 F   0  0  0  0  0  0  0  0  0  0  0  0
   21.5280   11.7060   28.4950 C   0  0  0  0  0  0  0  0  0  0  0  0
   21.8300   11.6710   27.1870 N   0  0  0  0  0  0  0  0  0  0  0  0
   22.6230    9.7040   22.8450 C   0  0  0  0  0  0  0  0  0  0  0  0
   23.0560    9.4100   21.5640 C   0  0  0  0  0  0  0  0  0  0  0  0
   23.6460   10.3780   20.7750 C   0  0  0  0  0  0  0  0  0  0  0  0
   24.0890   10.0570   19.5330 F   0  0  0  0  0  0  0  0  0  0  0  0
   25.7780   12.4430   19.7800 C   0  0  0  0  0  0  0  0  0  0  0  0
   26.9620   12.2540   21.0880 S   0  0  0  0  0  0  0  0  0  0  0  0
   28.2560   12.6020   20.5290 O   0  0  0  0  0  0  0  0  0  0  0  0
   26.7120   11.0780   21.8610 O   0  0  0  0  0  0  0  0  0  0  0  0
   27.0133   13.6951   24.1777 H   0  0  0  0  0  0  0  0  0  0  0  0
   28.3395   13.1544   23.0936 H   0  0  0  0  0  0  0  0  0  0  0  0
   27.8246   14.8753   23.0936 H   0  0  0  0  0  0  0  0  0  0  0  0
   24.6350   16.1770   22.4630 H   0  0  0  0  0  0  0  0  0  0  0  0
   26.1080   15.7370   23.2020 H   0  0  0  0  0  0  0  0  0  0  0  0
   22.4916   13.3198   19.5084 H   0  0  0  0  0  0  0  0  0  0  0  0
   23.9044   13.8508   18.5344 H   0  0  0  0  0  0  0  0  0  0  0  0
   23.4117   12.1234   18.5344 H   0  0  0  0  0  0  0  0  0  0  0  0
   23.4597   12.9878   22.8892 H   0  0  0  0  0  0  0  0  0  0  0  0
   22.8440   10.9710   25.3420 H   0  0  0  0  0  0  0  0  0  0  0  0
   19.4667   13.8312   26.0751 H   0  0  0  0  0  0  0  0  0  0  0  0
   18.9476   13.8758   28.5253 H   0  0  0  0  0  0  0  0  0  0  0  0
   22.1241   11.0925   29.1866 H   0  0  0  0  0  0  0  0  0  0  0  0
   22.1579    8.9327   23.4765 H   0  0  0  0  0  0  0  0  0  0  0  0
   22.9286    8.3914   21.1687 H   0  0  0  0  0  0  0  0  0  0  0  0
   25.7180   11.5048   19.2089 H   0  0  0  0  0  0  0  0  0  0  0  0
   26.1009   13.2673   19.1271 H   0  0  0  0  0  0  0  0  0  0  0  0
  1  2  1  0
  2  3  1  0
  3  4  1  0
  3  5  2  0
  5  6  1  0
  6  7  1  6
  6  8  1  0
  8  9  2  0
  9 10  1  0
 10 11  1  0
 11 12  1  0
 12 13  2  0
 12 14  1  0
 14 15  2  0
 15 16  1  0
 16 17  2  0
 17 18  1  0
 17 19  1  0
 19 20  2  0
 10 21  2  0
 21 22  1  0
 22 23  2  0
 23 24  1  0
  6 25  1  0
 25 26  1  0
 26 27  2  0
 26 28  2  0
 26  2  1  0
 23  8  1  0
 20 14  1  0
  1 29  1  0
  1 30  1  0
  1 31  1  0
  4 32  1  0
  4 33  1  0
  7 34  1  0
  7 35  1  0
  7 36  1  0
  9 37  1  0
 11 38  1  0
 15 39  1  0
 16 40  1  0
 19 41  1  0
 21 42  1  0
 22 43  1  0
 25 44  1  0
 25 45  1  0
M  END
>  <meeko>  (9) 
{"is_sidechain": false}

>  <source_group>  (9) 
BACE1-401 observed AD isoform

>  <source_system>  (9) 
BACE1_verubecestat_401

>  <source_run>  (9) 
alternate_401_seed1103_ex32

>  <source_seed>  (9) 
1103

>  <vina_pose_rank>  (9) 
9

>  <vina_affinity_kcal_mol>  (9) 
-8.5839999999999996

>  <vina_rmsd_to_crystal_angstrom>  (9) 
7.4097

$$$$
BACE1_verubecestat_401__alternate_401_seed1103_ex32__pose10
     RDKit          3D

 45 47  0  0  0  0  0  0  0  0999 V2000
   25.6290   13.9380   23.6650 C   0  0  0  0  0  0  0  0  0  0  0  0
   25.3340   13.6560   22.2460 N   0  0  0  0  0  0  0  0  0  0  0  0
   24.0270   13.6910   21.7100 C   0  0  0  0  0  0  0  0  0  0  0  0
   23.0810   14.1560   22.5830 N   0  0  0  0  0  0  0  0  0  0  0  0
   23.7360   13.3420   20.4950 N   0  0  0  0  0  0  0  0  0  0  0  0
   24.7370   12.7580   19.6030 C   0  0  2  0  0  0  0  0  0  0  0  0
   24.1160   12.9530   18.2170 C   0  0  0  0  0  0  0  0  0  0  0  0
   24.9250   11.2700   19.8520 C   0  0  0  0  0  0  0  0  0  0  0  0
   24.1200   10.5850   20.7610 C   0  0  0  0  0  0  0  0  0  0  0  0
   24.2690    9.2390   21.0090 C   0  0  0  0  0  0  0  0  0  0  0  0
   23.3930    8.6720   21.9440 N   0  0  0  0  0  0  0  0  0  0  0  0
   22.6220    9.3150   22.8960 C   0  0  0  0  0  0  0  0  0  0  0  0
   22.6820   10.5080   23.1620 O   0  0  0  0  0  0  0  0  0  0  0  0
   21.6360    8.4570   23.5970 C   0  0  0  0  0  0  0  0  0  0  0  0
   21.0520    7.3920   22.9340 C   0  0  0  0  0  0  0  0  0  0  0  0
   20.1380    6.6260   23.6350 C   0  0  0  0  0  0  0  0  0  0  0  0
   19.8440    6.9370   24.9490 C   0  0  0  0  0  0  0  0  0  0  0  0
   18.9560    6.2280   25.6670 F   0  0  0  0  0  0  0  0  0  0  0  0
   20.4730    8.0200   25.5200 C   0  0  0  0  0  0  0  0  0  0  0  0
   21.3600    8.7850   24.8630 N   0  0  0  0  0  0  0  0  0  0  0  0
   25.2310    8.5020   20.3300 C   0  0  0  0  0  0  0  0  0  0  0  0
   26.0420    9.1660   19.4270 C   0  0  0  0  0  0  0  0  0  0  0  0
   25.9020   10.5230   19.2120 C   0  0  0  0  0  0  0  0  0  0  0  0
   26.7290   11.1560   18.3420 F   0  0  0  0  0  0  0  0  0  0  0  0
   26.0070   13.5790   19.6390 C   0  0  0  0  0  0  0  0  0  0  0  0
   26.7370   13.5340   21.2560 S   0  0  0  0  0  0  0  0  0  0  0  0
   27.4810   14.7710   21.4090 O   0  0  0  0  0  0  0  0  0  0  0  0
   27.2600   12.2390   21.5630 O   0  0  0  0  0  0  0  0  0  0  0  0
   24.9818   13.3193   24.3040 H   0  0  0  0  0  0  0  0  0  0  0  0
   26.6831   13.7032   23.8741 H   0  0  0  0  0  0  0  0  0  0  0  0
   25.4419   15.0016   23.8741 H   0  0  0  0  0  0  0  0  0  0  0  0
   22.1400   14.2180   22.3010 H   0  0  0  0  0  0  0  0  0  0  0  0
   23.3420   14.4300   23.4920 H   0  0  0  0  0  0  0  0  0  0  0  0
   23.0717   13.2809   18.3260 H   0  0  0  0  0  0  0  0  0  0  0  0
   24.6842   13.7160   17.6647 H   0  0  0  0  0  0  0  0  0  0  0  0
   24.1460   12.0022   17.6647 H   0  0  0  0  0  0  0  0  0  0  0  0
   23.3376   11.1399   21.2995 H   0  0  0  0  0  0  0  0  0  0  0  0
   23.3170    7.6910   21.9200 H   0  0  0  0  0  0  0  0  0  0  0  0
   21.3052    7.1630   21.8883 H   0  0  0  0  0  0  0  0  0  0  0  0
   19.6463    5.7712   23.1476 H   0  0  0  0  0  0  0  0  0  0  0  0
   20.2378    8.2710   26.5648 H   0  0  0  0  0  0  0  0  0  0  0  0
   25.3446    7.4220   20.5052 H   0  0  0  0  0  0  0  0  0  0  0  0
   26.8090    8.6053   18.8726 H   0  0  0  0  0  0  0  0  0  0  0  0
   26.7215   13.1712   18.9087 H   0  0  0  0  0  0  0  0  0  0  0  0
   25.7612   14.6220   19.3907 H   0  0  0  0  0  0  0  0  0  0  0  0
  1  2  1  0
  2  3  1  0
  3  4  1  0
  3  5  2  0
  5  6  1  0
  6  7  1  6
  6  8  1  0
  8  9  2  0
  9 10  1  0
 10 11  1  0
 11 12  1  0
 12 13  2  0
 12 14  1  0
 14 15  2  0
 15 16  1  0
 16 17  2  0
 17 18  1  0
 17 19  1  0
 19 20  2  0
 10 21  2  0
 21 22  1  0
 22 23  2  0
 23 24  1  0
  6 25  1  0
 25 26  1  0
 26 27  2  0
 26 28  2  0
 26  2  1  0
 23  8  1  0
 20 14  1  0
  1 29  1  0
  1 30  1  0
  1 31  1  0
  4 32  1  0
  4 33  1  0
  7 34  1  0
  7 35  1  0
  7 36  1  0
  9 37  1  0
 11 38  1  0
 15 39  1  0
 16 40  1  0
 19 41  1  0
 21 42  1  0
 22 43  1  0
 25 44  1  0
 25 45  1  0
M  END
>  <meeko>  (10) 
{"is_sidechain": false}

>  <source_group>  (10) 
BACE1-401 observed AD isoform

>  <source_system>  (10) 
BACE1_verubecestat_401

>  <source_run>  (10) 
alternate_401_seed1103_ex32

>  <source_seed>  (10) 
1103

>  <vina_pose_rank>  (10) 
10

>  <vina_affinity_kcal_mol>  (10) 
-8.3780000000000001

>  <vina_rmsd_to_crystal_angstrom>  (10) 
6.5625

$$$$
BACE1_verubecestat_401__alternate_401_seed1103_ex32__pose11
     RDKit          3D

 45 47  0  0  0  0  0  0  0  0999 V2000
   22.1330    5.4760   24.7350 C   0  0  0  0  0  0  0  0  0  0  0  0
   21.0100    5.8000   23.8320 N   0  0  0  0  0  0  0  0  0  0  0  0
   21.1860    6.4210   22.5760 C   0  0  0  0  0  0  0  0  0  0  0  0
   22.4960    6.5580   22.2030 N   0  0  0  0  0  0  0  0  0  0  0  0
   20.2060    6.8100   21.8200 N   0  0  0  0  0  0  0  0  0  0  0  0
   18.8170    6.7460   22.2690 C   0  0  2  0  0  0  0  0  0  0  0  0
   18.0280    6.8340   20.9600 C   0  0  0  0  0  0  0  0  0  0  0  0
   18.4450    7.9310   23.1470 C   0  0  0  0  0  0  0  0  0  0  0  0
   19.3900    8.8970   23.4900 C   0  0  0  0  0  0  0  0  0  0  0  0
   19.0820    9.9780   24.2840 C   0  0  0  0  0  0  0  0  0  0  0  0
   20.1230   10.8770   24.5520 N   0  0  0  0  0  0  0  0  0  0  0  0
   20.8810   10.9920   25.7030 C   0  0  0  0  0  0  0  0  0  0  0  0
   20.6700   10.3910   26.7490 O   0  0  0  0  0  0  0  0  0  0  0  0
   22.0500   11.8990   25.6040 C   0  0  0  0  0  0  0  0  0  0  0  0
   22.8750   11.8440   24.4940 C   0  0  0  0  0  0  0  0  0  0  0  0
   23.9520   12.7110   24.4540 C   0  0  0  0  0  0  0  0  0  0  0  0
   24.1670   13.5900   25.4980 C   0  0  0  0  0  0  0  0  0  0  0  0
   25.2040   14.4450   25.5070 F   0  0  0  0  0  0  0  0  0  0  0  0
   23.2940   13.5660   26.5620 C   0  0  0  0  0  0  0  0  0  0  0  0
   22.2430   12.7320   26.6310 N   0  0  0  0  0  0  0  0  0  0  0  0
   17.7890   10.1560   24.7600 C   0  0  0  0  0  0  0  0  0  0  0  0
   16.8390    9.2050   24.4320 C   0  0  0  0  0  0  0  0  0  0  0  0
   17.1700    8.1090   23.6610 C   0  0  0  0  0  0  0  0  0  0  0  0
   16.2260    7.1750   23.3780 F   0  0  0  0  0  0  0  0  0  0  0  0
   18.5280    5.3880   22.8710 C   0  0  0  0  0  0  0  0  0  0  0  0
   19.5050    5.1280   24.3290 S   0  0  0  0  0  0  0  0  0  0  0  0
   19.6940    3.6930   24.4510 O   0  0  0  0  0  0  0  0  0  0  0  0
   19.0890    5.9770   25.4020 O   0  0  0  0  0  0  0  0  0  0  0  0
   21.8026    5.5713   25.7799 H   0  0  0  0  0  0  0  0  0  0  0  0
   22.4674    4.4447   24.5488 H   0  0  0  0  0  0  0  0  0  0  0  0
   22.9654    6.1706   24.5488 H   0  0  0  0  0  0  0  0  0  0  0  0
   22.7210    6.9800   21.3420 H   0  0  0  0  0  0  0  0  0  0  0  0
   23.2130    6.2340   22.7950 H   0  0  0  0  0  0  0  0  0  0  0  0
   16.9577    6.9534   21.1843 H   0  0  0  0  0  0  0  0  0  0  0  0
   18.3792    7.6985   20.3776 H   0  0  0  0  0  0  0  0  0  0  0  0
   18.1801    5.9133   20.3776 H   0  0  0  0  0  0  0  0  0  0  0  0
   20.4179    8.7914   23.1127 H   0  0  0  0  0  0  0  0  0  0  0  0
   20.3430   11.5070   23.8280 H   0  0  0  0  0  0  0  0  0  0  0  0
   22.6813   11.1369   23.6739 H   0  0  0  0  0  0  0  0  0  0  0  0
   24.6360   12.7007   23.5926 H   0  0  0  0  0  0  0  0  0  0  0  0
   23.4651   14.2630   27.3956 H   0  0  0  0  0  0  0  0  0  0  0  0
   17.5283   11.0270   25.3792 H   0  0  0  0  0  0  0  0  0  0  0  0
   15.8059    9.3240   24.7906 H   0  0  0  0  0  0  0  0  0  0  0  0
   17.4619    5.3297   23.1355 H   0  0  0  0  0  0  0  0  0  0  0  0
   18.7808    4.6127   22.1328 H   0  0  0  0  0  0  0  0  0  0  0  0
  1  2  1  0
  2  3  1  0
  3  4  1  0
  3  5  2  0
  5  6  1  0
  6  7  1  6
  6  8  1  0
  8  9  2  0
  9 10  1  0
 10 11  1  0
 11 12  1  0
 12 13  2  0
 12 14  1  0
 14 15  2  0
 15 16  1  0
 16 17  2  0
 17 18  1  0
 17 19  1  0
 19 20  2  0
 10 21  2  0
 21 22  1  0
 22 23  2  0
 23 24  1  0
  6 25  1  0
 25 26  1  0
 26 27  2  0
 26 28  2  0
 26  2  1  0
 23  8  1  0
 20 14  1  0
  1 29  1  0
  1 30  1  0
  1 31  1  0
  4 32  1  0
  4 33  1  0
  7 34  1  0
  7 35  1  0
  7 36  1  0
  9 37  1  0
 11 38  1  0
 15 39  1  0
 16 40  1  0
 19 41  1  0
 21 42  1  0
 22 43  1  0
 25 44  1  0
 25 45  1  0
M  END
>  <meeko>  (11) 
{"is_sidechain": false}

>  <source_group>  (11) 
BACE1-401 observed AD isoform

>  <source_system>  (11) 
BACE1_verubecestat_401

>  <source_run>  (11) 
alternate_401_seed1103_ex32

>  <source_seed>  (11) 
1103

>  <vina_pose_rank>  (11) 
11

>  <vina_affinity_kcal_mol>  (11) 
-8.3680000000000003

>  <vina_rmsd_to_crystal_angstrom>  (11) 
7.3127000000000004

$$$$
BACE1_verubecestat_401__alternate_401_seed1103_ex32__pose12
     RDKit          3D

 45 47  0  0  0  0  0  0  0  0999 V2000
   29.4390   12.8730   20.9660 C   0  0  0  0  0  0  0  0  0  0  0  0
   27.9730   12.7870   20.8110 N   0  0  0  0  0  0  0  0  0  0  0  0
   27.1050   12.4440   21.8720 C   0  0  0  0  0  0  0  0  0  0  0  0
   27.7260   12.3480   23.0880 N   0  0  0  0  0  0  0  0  0  0  0  0
   25.8290   12.2580   21.7290 N   0  0  0  0  0  0  0  0  0  0  0  0
   25.1940   12.2700   20.4120 C   0  0  2  0  0  0  0  0  0  0  0  0
   23.7160   12.4900   20.7460 C   0  0  0  0  0  0  0  0  0  0  0  0
   25.3420   10.9360   19.6960 C   0  0  0  0  0  0  0  0  0  0  0  0
   25.9750    9.8560   20.3080 C   0  0  0  0  0  0  0  0  0  0  0  0
   26.1250    8.6390   19.6830 C   0  0  0  0  0  0  0  0  0  0  0  0
   26.7790    7.6360   20.4100 N   0  0  0  0  0  0  0  0  0  0  0  0
   26.2270    6.5270   21.0280 C   0  0  0  0  0  0  0  0  0  0  0  0
   25.0280    6.3110   21.1460 O   0  0  0  0  0  0  0  0  0  0  0  0
   27.2040    5.5360   21.5400 C   0  0  0  0  0  0  0  0  0  0  0  0
   26.7560    4.3780   22.1530 C   0  0  0  0  0  0  0  0  0  0  0  0
   27.7110    3.4890   22.6140 C   0  0  0  0  0  0  0  0  0  0  0  0
   29.0530    3.7740   22.4490 C   0  0  0  0  0  0  0  0  0  0  0  0
   30.0160    2.9450   22.8880 F   0  0  0  0  0  0  0  0  0  0  0  0
   29.3990    4.9540   21.8310 C   0  0  0  0  0  0  0  0  0  0  0  0
   28.4960    5.8390   21.3790 N   0  0  0  0  0  0  0  0  0  0  0  0
   25.6210    8.4380   18.4040 C   0  0  0  0  0  0  0  0  0  0  0  0
   24.9920    9.5010   17.7790 C   0  0  0  0  0  0  0  0  0  0  0  0
   24.8770   10.7260   18.4070 C   0  0  0  0  0  0  0  0  0  0  0  0
   24.2810   11.7600   17.7600 F   0  0  0  0  0  0  0  0  0  0  0  0
   25.6560   13.4750   19.6230 C   0  0  0  0  0  0  0  0  0  0  0  0
   27.3990   13.3850   19.3020 S   0  0  0  0  0  0  0  0  0  0  0  0
   27.8680   14.7530   19.1760 O   0  0  0  0  0  0  0  0  0  0  0  0
   27.7120   12.3390   18.3790 O   0  0  0  0  0  0  0  0  0  0  0  0
   29.6943   12.8880   22.0358 H   0  0  0  0  0  0  0  0  0  0  0  0
   29.9099   12.0009   20.4888 H   0  0  0  0  0  0  0  0  0  0  0  0
   29.8048   13.7941   20.4888 H   0  0  0  0  0  0  0  0  0  0  0  0
   27.2040   12.1140   23.8900 H   0  0  0  0  0  0  0  0  0  0  0  0
   28.6940   12.5140   23.1620 H   0  0  0  0  0  0  0  0  0  0  0  0
   23.5858   12.5094   21.8381 H   0  0  0  0  0  0  0  0  0  0  0  0
   23.3824   13.4477   20.3199 H   0  0  0  0  0  0  0  0  0  0  0  0
   23.1179   11.6710   20.3199 H   0  0  0  0  0  0  0  0  0  0  0  0
   26.3690    9.9806   21.3274 H   0  0  0  0  0  0  0  0  0  0  0  0
   27.7550    7.7320   20.4930 H   0  0  0  0  0  0  0  0  0  0  0  0
   25.6816    4.1726   22.2691 H   0  0  0  0  0  0  0  0  0  0  0  0
   27.4025    2.5573   23.1108 H   0  0  0  0  0  0  0  0  0  0  0  0
   30.4670    5.1832   21.7010 H   0  0  0  0  0  0  0  0  0  0  0  0
   25.7188    7.4636   17.9031 H   0  0  0  0  0  0  0  0  0  0  0  0
   24.5781    9.3684   16.7685 H   0  0  0  0  0  0  0  0  0  0  0  0
   25.1141   13.5095   18.6664 H   0  0  0  0  0  0  0  0  0  0  0  0
   25.4514   14.3819   20.2109 H   0  0  0  0  0  0  0  0  0  0  0  0
  1  2  1  0
  2  3  1  0
  3  4  1  0
  3  5  2  0
  5  6  1  0
  6  7  1  1
  6  8  1  0
  8  9  2  0
  9 10  1  0
 10 11  1  0
 11 12  1  0
 12 13  2  0
 12 14  1  0
 14 15  2  0
 15 16  1  0
 16 17  2  0
 17 18  1  0
 17 19  1  0
 19 20  2  0
 10 21  2  0
 21 22  1  0
 22 23  2  0
 23 24  1  0
  6 25  1  0
 25 26  1  0
 26 27  2  0
 26 28  2  0
 26  2  1  0
 23  8  1  0
 20 14  1  0
  1 29  1  0
  1 30  1  0
  1 31  1  0
  4 32  1  0
  4 33  1  0
  7 34  1  0
  7 35  1  0
  7 36  1  0
  9 37  1  0
 11 38  1  0
 15 39  1  0
 16 40  1  0
 19 41  1  0
 21 42  1  0
 22 43  1  0
 25 44  1  0
 25 45  1  0
M  END
>  <meeko>  (12) 
{"is_sidechain": false}

>  <source_group>  (12) 
BACE1-401 observed AD isoform

>  <source_system>  (12) 
BACE1_verubecestat_401

>  <source_run>  (12) 
alternate_401_seed1103_ex32

>  <source_seed>  (12) 
1103

>  <vina_pose_rank>  (12) 
12

>  <vina_affinity_kcal_mol>  (12) 
-8.3049999999999997

>  <vina_rmsd_to_crystal_angstrom>  (12) 
5.2793000000000001

$$$$
BACE1_verubecestat_401__alternate_401_seed1103_ex32__pose13
     RDKit          3D

 45 47  0  0  0  0  0  0  0  0999 V2000
   22.6800    5.0120   24.7620 C   0  0  0  0  0  0  0  0  0  0  0  0
   21.5470    5.5480   23.9810 N   0  0  0  0  0  0  0  0  0  0  0  0
   21.7050    6.1660   22.7210 C   0  0  0  0  0  0  0  0  0  0  0  0
   22.9770    6.0890   22.2200 N   0  0  0  0  0  0  0  0  0  0  0  0
   20.7380    6.7380   22.0720 N   0  0  0  0  0  0  0  0  0  0  0  0
   19.4090    6.8980   22.6570 C   0  0  2  0  0  0  0  0  0  0  0  0
   18.5240    7.1570   21.4350 C   0  0  0  0  0  0  0  0  0  0  0  0
   19.3330    8.1030   23.5820 C   0  0  0  0  0  0  0  0  0  0  0  0
   20.4150    8.9710   23.7230 C   0  0  0  0  0  0  0  0  0  0  0  0
   20.3750   10.0680   24.5540 C   0  0  0  0  0  0  0  0  0  0  0  0
   21.5290   10.8610   24.6020 N   0  0  0  0  0  0  0  0  0  0  0  0
   21.6380   12.2280   24.4190 C   0  0  0  0  0  0  0  0  0  0  0  0
   20.7320   12.9630   24.0500 O   0  0  0  0  0  0  0  0  0  0  0  0
   22.9650   12.8060   24.7420 C   0  0  0  0  0  0  0  0  0  0  0  0
   24.0120   12.6760   23.8460 C   0  0  0  0  0  0  0  0  0  0  0  0
   25.2280   13.2330   24.1990 C   0  0  0  0  0  0  0  0  0  0  0  0
   25.3590   13.8920   25.4060 C   0  0  0  0  0  0  0  0  0  0  0  0
   26.5220   14.4400   25.7960 F   0  0  0  0  0  0  0  0  0  0  0  0
   24.2610   13.9640   26.2330 C   0  0  0  0  0  0  0  0  0  0  0  0
   23.0700   13.4280   25.9210 N   0  0  0  0  0  0  0  0  0  0  0  0
   19.2260   10.3620   25.2760 C   0  0  0  0  0  0  0  0  0  0  0  0
   18.1430    9.5090   25.1520 C   0  0  0  0  0  0  0  0  0  0  0  0
   18.2080    8.3950   24.3380 C   0  0  0  0  0  0  0  0  0  0  0  0
   17.1420    7.5580   24.2560 F   0  0  0  0  0  0  0  0  0  0  0  0
   18.9500    5.5920   23.2680 C   0  0  0  0  0  0  0  0  0  0  0  0
   20.0040    5.1270   24.6180 S   0  0  0  0  0  0  0  0  0  0  0  0
   19.9540    3.6780   24.7020 O   0  0  0  0  0  0  0  0  0  0  0  0
   19.8460    6.0030   25.7370 O   0  0  0  0  0  0  0  0  0  0  0  0
   22.4655    5.1135   25.8361 H   0  0  0  0  0  0  0  0  0  0  0  0
   22.8251    3.9498   24.5158 H   0  0  0  0  0  0  0  0  0  0  0  0
   23.5933    5.5735   24.5158 H   0  0  0  0  0  0  0  0  0  0  0  0
   23.1870    6.4920   21.3460 H   0  0  0  0  0  0  0  0  0  0  0  0
   23.6820    5.6310   22.7320 H   0  0  0  0  0  0  0  0  0  0  0  0
   17.5175    7.4516   21.7670 H   0  0  0  0  0  0  0  0  0  0  0  0
   18.9616    7.9648   20.8300 H   0  0  0  0  0  0  0  0  0  0  0  0
   18.4570    6.2408   20.8300 H   0  0  0  0  0  0  0  0  0  0  0  0
   21.3328    8.7724   23.1502 H   0  0  0  0  0  0  0  0  0  0  0  0
   22.3700   10.3840   24.7910 H   0  0  0  0  0  0  0  0  0  0  0  0
   23.8819   12.1494   22.8890 H   0  0  0  0  0  0  0  0  0  0  0  0
   26.0893   13.1513   23.5197 H   0  0  0  0  0  0  0  0  0  0  0  0
   24.3642   14.4858   27.1959 H   0  0  0  0  0  0  0  0  0  0  0  0
   19.1778   11.2470   25.9275 H   0  0  0  0  0  0  0  0  0  0  0  0
   17.2185    9.7211   25.7090 H   0  0  0  0  0  0  0  0  0  0  0  0
   17.9203    5.7081   23.6371 H   0  0  0  0  0  0  0  0  0  0  0  0
   18.9932    4.8069   22.4987 H   0  0  0  0  0  0  0  0  0  0  0  0
  1  2  1  0
  2  3  1  0
  3  4  1  0
  3  5  2  0
  5  6  1  0
  6  7  1  6
  6  8  1  0
  8  9  2  0
  9 10  1  0
 10 11  1  0
 11 12  1  0
 12 13  2  0
 12 14  1  0
 14 15  2  0
 15 16  1  0
 16 17  2  0
 17 18  1  0
 17 19  1  0
 19 20  2  0
 10 21  2  0
 21 22  1  0
 22 23  2  0
 23 24  1  0
  6 25  1  0
 25 26  1  0
 26 27  2  0
 26 28  2  0
 26  2  1  0
 23  8  1  0
 20 14  1  0
  1 29  1  0
  1 30  1  0
  1 31  1  0
  4 32  1  0
  4 33  1  0
  7 34  1  0
  7 35  1  0
  7 36  1  0
  9 37  1  0
 11 38  1  0
 15 39  1  0
 16 40  1  0
 19 41  1  0
 21 42  1  0
 22 43  1  0
 25 44  1  0
 25 45  1  0
M  END
>  <meeko>  (13) 
{"is_sidechain": false}

>  <source_group>  (13) 
BACE1-401 observed AD isoform

>  <source_system>  (13) 
BACE1_verubecestat_401

>  <source_run>  (13) 
alternate_401_seed1103_ex32

>  <source_seed>  (13) 
1103

>  <vina_pose_rank>  (13) 
13

>  <vina_affinity_kcal_mol>  (13) 
-8.2349999999999994

>  <vina_rmsd_to_crystal_angstrom>  (13) 
6.7699999999999996

$$$$
BACE1_verubecestat_401__alternate_401_seed1103_ex32__pose14
     RDKit          3D

 45 47  0  0  0  0  0  0  0  0999 V2000
   18.5430   11.1440   29.7070 C   0  0  0  0  0  0  0  0  0  0  0  0
   18.8650   11.5540   28.3260 N   0  0  0  0  0  0  0  0  0  0  0  0
   18.1020   12.5000   27.6060 C   0  0  0  0  0  0  0  0  0  0  0  0
   17.1320   13.1140   28.3510 N   0  0  0  0  0  0  0  0  0  0  0  0
   18.3050   12.7910   26.3580 N   0  0  0  0  0  0  0  0  0  0  0  0
   19.2790   12.0620   25.5470 C   0  0  2  0  0  0  0  0  0  0  0  0
   19.5190   13.0070   24.3670 C   0  0  0  0  0  0  0  0  0  0  0  0
   18.7160   10.7510   25.0200 C   0  0  0  0  0  0  0  0  0  0  0  0
   19.5360    9.6400   24.8290 C   0  0  0  0  0  0  0  0  0  0  0  0
   19.0540    8.4430   24.3500 C   0  0  0  0  0  0  0  0  0  0  0  0
   19.9840    7.4050   24.2070 N   0  0  0  0  0  0  0  0  0  0  0  0
   20.3500    6.4480   25.1370 C   0  0  0  0  0  0  0  0  0  0  0  0
   20.0010    6.4360   26.3100 O   0  0  0  0  0  0  0  0  0  0  0  0
   21.2040    5.3530   24.6160 C   0  0  0  0  0  0  0  0  0  0  0  0
   21.8130    5.4810   23.3790 C   0  0  0  0  0  0  0  0  0  0  0  0
   22.5980    4.4280   22.9420 C   0  0  0  0  0  0  0  0  0  0  0  0
   22.7500    3.3080   23.7350 C   0  0  0  0  0  0  0  0  0  0  0  0
   23.4940    2.2570   23.3480 F   0  0  0  0  0  0  0  0  0  0  0  0
   22.0990    3.2710   24.9470 C   0  0  0  0  0  0  0  0  0  0  0  0
   21.3270    4.2740   25.3960 N   0  0  0  0  0  0  0  0  0  0  0  0
   17.7040    8.2950   24.0580 C   0  0  0  0  0  0  0  0  0  0  0  0
   16.8760    9.3880   24.2380 C   0  0  0  0  0  0  0  0  0  0  0  0
   17.3790   10.5930   24.6890 C   0  0  0  0  0  0  0  0  0  0  0  0
   16.5500   11.6590   24.8290 F   0  0  0  0  0  0  0  0  0  0  0  0
   20.5890   11.9420   26.2930 C   0  0  0  0  0  0  0  0  0  0  0  0
   20.3860   10.9730   27.7660 S   0  0  0  0  0  0  0  0  0  0  0  0
   21.3930   11.4320   28.7060 O   0  0  0  0  0  0  0  0  0  0  0  0
   20.1370    9.5990   27.4630 O   0  0  0  0  0  0  0  0  0  0  0  0
   19.0623   11.8052   30.4163 H   0  0  0  0  0  0  0  0  0  0  0  0
   17.4570   11.2154   29.8669 H   0  0  0  0  0  0  0  0  0  0  0  0
   18.8697   10.1059   29.8669 H   0  0  0  0  0  0  0  0  0  0  0  0
   16.5480   13.7900   27.9370 H   0  0  0  0  0  0  0  0  0  0  0  0
   17.0190   12.8810   29.3010 H   0  0  0  0  0  0  0  0  0  0  0  0
   19.7733   14.0083   24.7449 H   0  0  0  0  0  0  0  0  0  0  0  0
   20.3486   12.6248   23.7540 H   0  0  0  0  0  0  0  0  0  0  0  0
   18.6076   13.0670   23.7540 H   0  0  0  0  0  0  0  0  0  0  0  0
   20.6062    9.7228   25.0696 H   0  0  0  0  0  0  0  0  0  0  0  0
   20.4330    7.3490   23.3330 H   0  0  0  0  0  0  0  0  0  0  0  0
   21.6781    6.3850   22.7670 H   0  0  0  0  0  0  0  0  0  0  0  0
   23.0998    4.4834   21.9647 H   0  0  0  0  0  0  0  0  0  0  0  0
   22.2166    2.3776   25.5778 H   0  0  0  0  0  0  0  0  0  0  0  0
   17.3052    7.3365   23.6943 H   0  0  0  0  0  0  0  0  0  0  0  0
   15.8019    9.2966   24.0190 H   0  0  0  0  0  0  0  0  0  0  0  0
   21.3321   11.4582   25.6421 H   0  0  0  0  0  0  0  0  0  0  0  0
   20.9280   12.9493   26.5764 H   0  0  0  0  0  0  0  0  0  0  0  0
  1  2  1  0
  2  3  1  0
  3  4  1  0
  3  5  2  0
  5  6  1  0
  6  7  1  6
  6  8  1  0
  8  9  2  0
  9 10  1  0
 10 11  1  0
 11 12  1  0
 12 13  2  0
 12 14  1  0
 14 15  2  0
 15 16  1  0
 16 17  2  0
 17 18  1  0
 17 19  1  0
 19 20  2  0
 10 21  2  0
 21 22  1  0
 22 23  2  0
 23 24  1  0
  6 25  1  0
 25 26  1  0
 26 27  2  0
 26 28  2  0
 26  2  1  0
 23  8  1  0
 20 14  1  0
  1 29  1  0
  1 30  1  0
  1 31  1  0
  4 32  1  0
  4 33  1  0
  7 34  1  0
  7 35  1  0
  7 36  1  0
  9 37  1  0
 11 38  1  0
 15 39  1  0
 16 40  1  0
 19 41  1  0
 21 42  1  0
 22 43  1  0
 25 44  1  0
 25 45  1  0
M  END
>  <meeko>  (14) 
{"is_sidechain": false}

>  <source_group>  (14) 
BACE1-401 observed AD isoform

>  <source_system>  (14) 
BACE1_verubecestat_401

>  <source_run>  (14) 
alternate_401_seed1103_ex32

>  <source_seed>  (14) 
1103

>  <vina_pose_rank>  (14) 
14

>  <vina_affinity_kcal_mol>  (14) 
-8.2140000000000004

>  <vina_rmsd_to_crystal_angstrom>  (14) 
7.8296999999999999

$$$$
BACE1_verubecestat_401__alternate_401_seed1103_ex32__pose15
     RDKit          3D

 45 47  0  0  0  0  0  0  0  0999 V2000
   26.4460   13.2730   23.8350 C   0  0  0  0  0  0  0  0  0  0  0  0
   26.4510   13.5070   22.3770 N   0  0  0  0  0  0  0  0  0  0  0  0
   25.5970   14.4370   21.7430 C   0  0  0  0  0  0  0  0  0  0  0  0
   24.8750   15.2100   22.6130 N   0  0  0  0  0  0  0  0  0  0  0  0
   25.5120   14.5780   20.4560 N   0  0  0  0  0  0  0  0  0  0  0  0
   26.2150   13.6840   19.5380 C   0  0  2  0  0  0  0  0  0  0  0  0
   26.2230   14.4760   18.2270 C   0  0  0  0  0  0  0  0  0  0  0  0
   25.4620   12.3810   19.3200 C   0  0  0  0  0  0  0  0  0  0  0  0
   26.1370   11.2050   18.9960 C   0  0  0  0  0  0  0  0  0  0  0  0
   25.4810   10.0130   18.7900 C   0  0  0  0  0  0  0  0  0  0  0  0
   26.2780    8.9050   18.4730 N   0  0  0  0  0  0  0  0  0  0  0  0
   26.4380    7.7320   19.1890 C   0  0  0  0  0  0  0  0  0  0  0  0
   25.9930    7.5240   20.3100 O   0  0  0  0  0  0  0  0  0  0  0  0
   27.1850    6.6590   18.4880 C   0  0  0  0  0  0  0  0  0  0  0  0
   26.7270    6.1790   17.2730 C   0  0  0  0  0  0  0  0  0  0  0  0
   27.4620    5.1770   16.6630 C   0  0  0  0  0  0  0  0  0  0  0  0
   28.6070    4.6980   17.2700 C   0  0  0  0  0  0  0  0  0  0  0  0
   29.3470    3.7190   16.7210 F   0  0  0  0  0  0  0  0  0  0  0  0
   28.9780    5.2350   18.4810 C   0  0  0  0  0  0  0  0  0  0  0  0
   28.2830    6.2040   19.1000 N   0  0  0  0  0  0  0  0  0  0  0  0
   24.1000    9.9370   18.9230 C   0  0  0  0  0  0  0  0  0  0  0  0
   23.4130   11.0960   19.2400 C   0  0  0  0  0  0  0  0  0  0  0  0
   24.0820   12.2920   19.4130 C   0  0  0  0  0  0  0  0  0  0  0  0
   23.3810   13.4210   19.6950 F   0  0  0  0  0  0  0  0  0  0  0  0
   27.6570   13.5270   19.9690 C   0  0  0  0  0  0  0  0  0  0  0  0
   27.7540   12.7380   21.5560 S   0  0  0  0  0  0  0  0  0  0  0  0
   28.9840   13.2010   22.1730 O   0  0  0  0  0  0  0  0  0  0  0  0
   27.3550   11.3670   21.4890 O   0  0  0  0  0  0  0  0  0  0  0  0
   26.4666   14.2386   24.3614 H   0  0  0  0  0  0  0  0  0  0  0  0
   25.5359   12.7222   24.1148 H   0  0  0  0  0  0  0  0  0  0  0  0
   27.3318   12.6838   24.1148 H   0  0  0  0  0  0  0  0  0  0  0  0
   24.2510   15.8880   22.2660 H   0  0  0  0  0  0  0  0  0  0  0  0
   24.9790   15.0880   23.5840 H   0  0  0  0  0  0  0  0  0  0  0  0
   26.2339   15.5532   18.4494 H   0  0  0  0  0  0  0  0  0  0  0  0
   27.1185   14.2127   17.6450 H   0  0  0  0  0  0  0  0  0  0  0  0
   25.3223   14.2309   17.6450 H   0  0  0  0  0  0  0  0  0  0  0  0
   27.2326   11.2309   18.9017 H   0  0  0  0  0  0  0  0  0  0  0  0
   26.7880    8.9690   17.6330 H   0  0  0  0  0  0  0  0  0  0  0  0
   25.8131    6.5789   16.8095 H   0  0  0  0  0  0  0  0  0  0  0  0
   27.1353    4.7632   15.6976 H   0  0  0  0  0  0  0  0  0  0  0  0
   29.8881    4.8524   18.9662 H   0  0  0  0  0  0  0  0  0  0  0  0
   23.5687    8.9844   18.7806 H   0  0  0  0  0  0  0  0  0  0  0  0
   22.3196   11.0642   19.3557 H   0  0  0  0  0  0  0  0  0  0  0  0
   28.1910   12.9143   19.2277 H   0  0  0  0  0  0  0  0  0  0  0  0
   28.1156   14.5242   20.0408 H   0  0  0  0  0  0  0  0  0  0  0  0
  1  2  1  0
  2  3  1  0
  3  4  1  0
  3  5  2  0
  5  6  1  0
  6  7  1  6
  6  8  1  0
  8  9  2  0
  9 10  1  0
 10 11  1  0
 11 12  1  0
 12 13  2  0
 12 14  1  0
 14 15  2  0
 15 16  1  0
 16 17  2  0
 17 18  1  0
 17 19  1  0
 19 20  2  0
 10 21  2  0
 21 22  1  0
 22 23  2  0
 23 24  1  0
  6 25  1  0
 25 26  1  0
 26 27  2  0
 26 28  2  0
 26  2  1  0
 23  8  1  0
 20 14  1  0
  1 29  1  0
  1 30  1  0
  1 31  1  0
  4 32  1  0
  4 33  1  0
  7 34  1  0
  7 35  1  0
  7 36  1  0
  9 37  1  0
 11 38  1  0
 15 39  1  0
 16 40  1  0
 19 41  1  0
 21 42  1  0
 22 43  1  0
 25 44  1  0
 25 45  1  0
M  END
>  <meeko>  (15) 
{"is_sidechain": false}

>  <source_group>  (15) 
BACE1-401 observed AD isoform

>  <source_system>  (15) 
BACE1_verubecestat_401

>  <source_run>  (15) 
alternate_401_seed1103_ex32

>  <source_seed>  (15) 
1103

>  <vina_pose_rank>  (15) 
15

>  <vina_affinity_kcal_mol>  (15) 
-8.2119999999999997

>  <vina_rmsd_to_crystal_angstrom>  (15) 
5.6025999999999998

$$$$
BACE1_verubecestat_401__alternate_401_seed1103_ex32__pose16
     RDKit          3D

 45 47  0  0  0  0  0  0  0  0999 V2000
   17.0400    8.5410   21.7790 C   0  0  0  0  0  0  0  0  0  0  0  0
   17.8050    7.9470   22.8930 N   0  0  0  0  0  0  0  0  0  0  0  0
   18.3620    8.7140   23.9400 C   0  0  0  0  0  0  0  0  0  0  0  0
   18.0020   10.0350   23.9130 N   0  0  0  0  0  0  0  0  0  0  0  0
   19.1270    8.2230   24.8660 N   0  0  0  0  0  0  0  0  0  0  0  0
   19.5810    6.8340   24.8310 C   0  0  2  0  0  0  0  0  0  0  0  0
   20.0170    6.5790   26.2770 C   0  0  0  0  0  0  0  0  0  0  0  0
   20.7820    6.6490   23.9170 C   0  0  0  0  0  0  0  0  0  0  0  0
   21.3650    7.7350   23.2650 C   0  0  0  0  0  0  0  0  0  0  0  0
   22.4500    7.5970   22.4300 C   0  0  0  0  0  0  0  0  0  0  0  0
   22.9410    8.7680   21.8390 N   0  0  0  0  0  0  0  0  0  0  0  0
   24.1390    8.9550   21.1730 C   0  0  0  0  0  0  0  0  0  0  0  0
   25.0420    8.1320   21.1020 O   0  0  0  0  0  0  0  0  0  0  0  0
   24.2790   10.2560   20.4750 C   0  0  0  0  0  0  0  0  0  0  0  0
   23.3660   10.6200   19.5000 C   0  0  0  0  0  0  0  0  0  0  0  0
   23.5460   11.8440   18.8800 C   0  0  0  0  0  0  0  0  0  0  0  0
   24.6050   12.6510   19.2470 C   0  0  0  0  0  0  0  0  0  0  0  0
   24.8250   13.8440   18.6670 F   0  0  0  0  0  0  0  0  0  0  0  0
   25.4640   12.2000   20.2240 C   0  0  0  0  0  0  0  0  0  0  0  0
   25.3180   11.0150   20.8390 N   0  0  0  0  0  0  0  0  0  0  0  0
   23.0240    6.3490   22.2230 C   0  0  0  0  0  0  0  0  0  0  0  0
   22.4560    5.2590   22.8590 C   0  0  0  0  0  0  0  0  0  0  0  0
   21.3480    5.4080   23.6690 C   0  0  0  0  0  0  0  0  0  0  0  0
   20.7920    4.3180   24.2580 F   0  0  0  0  0  0  0  0  0  0  0  0
   18.4140    5.9130   24.5510 C   0  0  0  0  0  0  0  0  0  0  0  0
   17.7410    6.2270   22.9390 S   0  0  0  0  0  0  0  0  0  0  0  0
   16.3400    5.8500   22.9950 O   0  0  0  0  0  0  0  0  0  0  0  0
   18.6410    5.8230   21.9040 O   0  0  0  0  0  0  0  0  0  0  0  0
   16.2318    9.1685   22.1827 H   0  0  0  0  0  0  0  0  0  0  0  0
   17.7099    9.1579   21.1621 H   0  0  0  0  0  0  0  0  0  0  0  0
   16.6082    7.7391   21.1621 H   0  0  0  0  0  0  0  0  0  0  0  0
   18.3400   10.6510   24.6030 H   0  0  0  0  0  0  0  0  0  0  0  0
   17.4050   10.3680   23.2050 H   0  0  0  0  0  0  0  0  0  0  0  0
   19.2762    7.0122   26.9652 H   0  0  0  0  0  0  0  0  0  0  0  0
   20.0905    5.4955   26.4522 H   0  0  0  0  0  0  0  0  0  0  0  0
   20.9974    7.0461   26.4522 H   0  0  0  0  0  0  0  0  0  0  0  0
   20.9424    8.7381   23.4239 H   0  0  0  0  0  0  0  0  0  0  0  0
   22.3590    9.5600   21.9080 H   0  0  0  0  0  0  0  0  0  0  0  0
   22.5285    9.9607   19.2282 H   0  0  0  0  0  0  0  0  0  0  0  0
   22.8474   12.1734   18.0968 H   0  0  0  0  0  0  0  0  0  0  0  0
   26.3098   12.8405   20.5145 H   0  0  0  0  0  0  0  0  0  0  0  0
   23.9036    6.2307   21.5731 H   0  0  0  0  0  0  0  0  0  0  0  0
   22.8935    4.2598   22.7171 H   0  0  0  0  0  0  0  0  0  0  0  0
   18.7572    4.8692   24.6021 H   0  0  0  0  0  0  0  0  0  0  0  0
   17.6317    6.0943   25.3027 H   0  0  0  0  0  0  0  0  0  0  0  0
  1  2  1  0
  2  3  1  0
  3  4  1  0
  3  5  2  0
  5  6  1  0
  6  7  1  1
  6  8  1  0
  8  9  2  0
  9 10  1  0
 10 11  1  0
 11 12  1  0
 12 13  2  0
 12 14  1  0
 14 15  2  0
 15 16  1  0
 16 17  2  0
 17 18  1  0
 17 19  1  0
 19 20  2  0
 10 21  2  0
 21 22  1  0
 22 23  2  0
 23 24  1  0
  6 25  1  0
 25 26  1  0
 26 27  2  0
 26 28  2  0
 26  2  1  0
 23  8  1  0
 20 14  1  0
  1 29  1  0
  1 30  1  0
  1 31  1  0
  4 32  1  0
  4 33  1  0
  7 34  1  0
  7 35  1  0
  7 36  1  0
  9 37  1  0
 11 38  1  0
 15 39  1  0
 16 40  1  0
 19 41  1  0
 21 42  1  0
 22 43  1  0
 25 44  1  0
 25 45  1  0
M  END
>  <meeko>  (16) 
{"is_sidechain": false}

>  <source_group>  (16) 
BACE1-401 observed AD isoform

>  <source_system>  (16) 
BACE1_verubecestat_401

>  <source_run>  (16) 
alternate_401_seed1103_ex32

>  <source_seed>  (16) 
1103

>  <vina_pose_rank>  (16) 
16

>  <vina_affinity_kcal_mol>  (16) 
-8.1790000000000003

>  <vina_rmsd_to_crystal_angstrom>  (16) 
6.3189000000000002

$$$$
BACE1_verubecestat_401__alternate_401_seed1103_ex32__pose17
     RDKit          3D

 45 47  0  0  0  0  0  0  0  0999 V2000
   28.6510   10.4800   22.2310 C   0  0  0  0  0  0  0  0  0  0  0  0
   28.1260   11.7360   21.6590 N   0  0  0  0  0  0  0  0  0  0  0  0
   27.4810   12.7250   22.4340 C   0  0  0  0  0  0  0  0  0  0  0  0
   27.5200   12.4880   23.7820 N   0  0  0  0  0  0  0  0  0  0  0  0
   26.9190   13.7820   21.9330 N   0  0  0  0  0  0  0  0  0  0  0  0
   26.8000   13.9770   20.4890 C   0  0  2  0  0  0  0  0  0  0  0  0
   26.5390   15.4810   20.3660 C   0  0  0  0  0  0  0  0  0  0  0  0
   25.6140   13.2240   19.9060 C   0  0  0  0  0  0  0  0  0  0  0  0
   24.8580   12.3540   20.6910 C   0  0  0  0  0  0  0  0  0  0  0  0
   23.7820   11.6580   20.1900 C   0  0  0  0  0  0  0  0  0  0  0  0
   23.1050   10.8190   21.0850 N   0  0  0  0  0  0  0  0  0  0  0  0
   23.4480    9.5400   21.4870 C   0  0  0  0  0  0  0  0  0  0  0  0
   24.3570    8.8720   21.0120 O   0  0  0  0  0  0  0  0  0  0  0  0
   22.6460    8.9920   22.6080 C   0  0  0  0  0  0  0  0  0  0  0  0
   22.2930    7.6540   22.6150 C   0  0  0  0  0  0  0  0  0  0  0  0
   21.5430    7.1960   23.6840 C   0  0  0  0  0  0  0  0  0  0  0  0
   21.1780    8.0680   24.6920 C   0  0  0  0  0  0  0  0  0  0  0  0
   20.4410    7.6720   25.7440 F   0  0  0  0  0  0  0  0  0  0  0  0
   21.5710    9.3840   24.5920 C   0  0  0  0  0  0  0  0  0  0  0  0
   22.2950    9.8580   23.5640 N   0  0  0  0  0  0  0  0  0  0  0  0
   23.3940   11.8190   18.8660 C   0  0  0  0  0  0  0  0  0  0  0  0
   24.1350   12.6760   18.0710 C   0  0  0  0  0  0  0  0  0  0  0  0
   25.2320   13.3430   18.5790 C   0  0  0  0  0  0  0  0  0  0  0  0
   25.9610   14.1560   17.7700 F   0  0  0  0  0  0  0  0  0  0  0  0
   28.1270   13.7010   19.8170 C   0  0  0  0  0  0  0  0  0  0  0  0
   28.5930   12.0010   20.0230 S   0  0  0  0  0  0  0  0  0  0  0  0
   30.0440   11.9610   19.9780 O   0  0  0  0  0  0  0  0  0  0  0  0
   27.7420   11.1260   19.2780 O   0  0  0  0  0  0  0  0  0  0  0  0
   28.6264   10.5388   23.3292 H   0  0  0  0  0  0  0  0  0  0  0  0
   28.0302    9.6364   21.8950 H   0  0  0  0  0  0  0  0  0  0  0  0
   29.6875   10.3292   21.8950 H   0  0  0  0  0  0  0  0  0  0  0  0
   27.0970   13.1210   24.4050 H   0  0  0  0  0  0  0  0  0  0  0  0
   27.9710   11.6840   24.1270 H   0  0  0  0  0  0  0  0  0  0  0  0
   26.4623   15.9232   21.3703 H   0  0  0  0  0  0  0  0  0  0  0  0
   27.3685   15.9536   19.8197 H   0  0  0  0  0  0  0  0  0  0  0  0
   25.5987   15.6465   19.8197 H   0  0  0  0  0  0  0  0  0  0  0  0
   25.1315   12.2194   21.7479 H   0  0  0  0  0  0  0  0  0  0  0  0
   22.2810   11.1860   21.4780 H   0  0  0  0  0  0  0  0  0  0  0  0
   22.5973    6.9795   21.8011 H   0  0  0  0  0  0  0  0  0  0  0  0
   21.2381    6.1402   23.7313 H   0  0  0  0  0  0  0  0  0  0  0  0
   21.2783   10.0803   25.3917 H   0  0  0  0  0  0  0  0  0  0  0  0
   22.5238   11.2814   18.4614 H   0  0  0  0  0  0  0  0  0  0  0  0
   23.8461   12.8277   17.0205 H   0  0  0  0  0  0  0  0  0  0  0  0
   28.0414   13.9244   18.7433 H   0  0  0  0  0  0  0  0  0  0  0  0
   28.8964   14.3370   20.2790 H   0  0  0  0  0  0  0  0  0  0  0  0
  1  2  1  0
  2  3  1  0
  3  4  1  0
  3  5  2  0
  5  6  1  0
  6  7  1  1
  6  8  1  0
  8  9  2  0
  9 10  1  0
 10 11  1  0
 11 12  1  0
 12 13  2  0
 12 14  1  0
 14 15  2  0
 15 16  1  0
 16 17  2  0
 17 18  1  0
 17 19  1  0
 19 20  2  0
 10 21  2  0
 21 22  1  0
 22 23  2  0
 23 24  1  0
  6 25  1  0
 25 26  1  0
 26 27  2  0
 26 28  2  0
 26  2  1  0
 23  8  1  0
 20 14  1  0
  1 29  1  0
  1 30  1  0
  1 31  1  0
  4 32  1  0
  4 33  1  0
  7 34  1  0
  7 35  1  0
  7 36  1  0
  9 37  1  0
 11 38  1  0
 15 39  1  0
 16 40  1  0
 19 41  1  0
 21 42  1  0
 22 43  1  0
 25 44  1  0
 25 45  1  0
M  END
>  <meeko>  (17) 
{"is_sidechain": false}

>  <source_group>  (17) 
BACE1-401 observed AD isoform

>  <source_system>  (17) 
BACE1_verubecestat_401

>  <source_run>  (17) 
alternate_401_seed1103_ex32

>  <source_seed>  (17) 
1103

>  <vina_pose_rank>  (17) 
17

>  <vina_affinity_kcal_mol>  (17) 
-8.1660000000000004

>  <vina_rmsd_to_crystal_angstrom>  (17) 
6.7221000000000002

$$$$
BACE1_verubecestat_401__alternate_401_seed1103_ex32__pose18
     RDKit          3D

 45 47  0  0  0  0  0  0  0  0999 V2000
   17.7550   15.5230   26.6040 C   0  0  0  0  0  0  0  0  0  0  0  0
   18.4050   14.2060   26.7560 N   0  0  0  0  0  0  0  0  0  0  0  0
   18.8480   13.7040   28.0000 C   0  0  0  0  0  0  0  0  0  0  0  0
   18.4860   14.4770   29.0710 N   0  0  0  0  0  0  0  0  0  0  0  0
   19.5160   12.6000   28.1360 N   0  0  0  0  0  0  0  0  0  0  0  0
   19.9780   11.8340   26.9800 C   0  0  2  0  0  0  0  0  0  0  0  0
   20.2640   10.4530   27.5760 C   0  0  0  0  0  0  0  0  0  0  0  0
   21.2670   12.3960   26.4010 C   0  0  0  0  0  0  0  0  0  0  0  0
   21.6190   12.1670   25.0710 C   0  0  0  0  0  0  0  0  0  0  0  0
   22.7800   12.6600   24.5210 C   0  0  0  0  0  0  0  0  0  0  0  0
   23.0140   12.3590   23.1730 N   0  0  0  0  0  0  0  0  0  0  0  0
   23.3820   13.2200   22.1540 C   0  0  0  0  0  0  0  0  0  0  0  0
   23.4390   14.4390   22.2480 O   0  0  0  0  0  0  0  0  0  0  0  0
   23.7600   12.5660   20.8780 C   0  0  0  0  0  0  0  0  0  0  0  0
   23.4110   11.2460   20.6480 C   0  0  0  0  0  0  0  0  0  0  0  0
   23.7910   10.6850   19.4420 C   0  0  0  0  0  0  0  0  0  0  0  0
   24.4900   11.4420   18.5210 C   0  0  0  0  0  0  0  0  0  0  0  0
   24.8880   10.9380   17.3410 F   0  0  0  0  0  0  0  0  0  0  0  0
   24.7960   12.7450   18.8440 C   0  0  0  0  0  0  0  0  0  0  0  0
   24.4460   13.3150   20.0080 N   0  0  0  0  0  0  0  0  0  0  0  0
   23.6440   13.4360   25.2830 C   0  0  0  0  0  0  0  0  0  0  0  0
   23.3130   13.6710   26.6060 C   0  0  0  0  0  0  0  0  0  0  0  0
   22.1600   13.1430   27.1530 C   0  0  0  0  0  0  0  0  0  0  0  0
   21.8730   13.3640   28.4610 F   0  0  0  0  0  0  0  0  0  0  0  0
   18.8500   11.6630   25.9860 C   0  0  0  0  0  0  0  0  0  0  0  0
   18.3440   13.2350   25.3350 S   0  0  0  0  0  0  0  0  0  0  0  0
   16.9460   13.0990   24.9660 O   0  0  0  0  0  0  0  0  0  0  0  0
   19.3470   13.8030   24.4890 O   0  0  0  0  0  0  0  0  0  0  0  0
   17.5463   15.9458   27.5978 H   0  0  0  0  0  0  0  0  0  0  0  0
   18.4226   16.1997   26.0505 H   0  0  0  0  0  0  0  0  0  0  0  0
   16.8118   15.4047   26.0505 H   0  0  0  0  0  0  0  0  0  0  0  0
   18.7490   14.2090   29.9810 H   0  0  0  0  0  0  0  0  0  0  0  0
   17.9630   15.2990   28.9310 H   0  0  0  0  0  0  0  0  0  0  0  0
   20.2506   10.5176   28.6740 H   0  0  0  0  0  0  0  0  0  0  0  0
   19.4939    9.7425   27.2411 H   0  0  0  0  0  0  0  0  0  0  0  0
   21.2529   10.1067   27.2411 H   0  0  0  0  0  0  0  0  0  0  0  0
   20.9443   11.5709   24.4390 H   0  0  0  0  0  0  0  0  0  0  0  0
   22.9020   11.4150   22.9190 H   0  0  0  0  0  0  0  0  0  0  0  0
   22.8523   10.6650   21.3965 H   0  0  0  0  0  0  0  0  0  0  0  0
   23.5374    9.6387   19.2166 H   0  0  0  0  0  0  0  0  0  0  0  0
   25.3543   13.3482   18.1129 H   0  0  0  0  0  0  0  0  0  0  0  0
   24.5646   13.8517   24.8475 H   0  0  0  0  0  0  0  0  0  0  0  0
   23.9772   14.2866   27.2304 H   0  0  0  0  0  0  0  0  0  0  0  0
   19.1912   11.0227   25.1592 H   0  0  0  0  0  0  0  0  0  0  0  0
   17.9938   11.2003   26.4987 H   0  0  0  0  0  0  0  0  0  0  0  0
  1  2  1  0
  2  3  1  0
  3  4  1  0
  3  5  2  0
  5  6  1  0
  6  7  1  1
  6  8  1  0
  8  9  2  0
  9 10  1  0
 10 11  1  0
 11 12  1  0
 12 13  2  0
 12 14  1  0
 14 15  2  0
 15 16  1  0
 16 17  2  0
 17 18  1  0
 17 19  1  0
 19 20  2  0
 10 21  2  0
 21 22  1  0
 22 23  2  0
 23 24  1  0
  6 25  1  0
 25 26  1  0
 26 27  2  0
 26 28  2  0
 26  2  1  0
 23  8  1  0
 20 14  1  0
  1 29  1  0
  1 30  1  0
  1 31  1  0
  4 32  1  0
  4 33  1  0
  7 34  1  0
  7 35  1  0
  7 36  1  0
  9 37  1  0
 11 38  1  0
 15 39  1  0
 16 40  1  0
 19 41  1  0
 21 42  1  0
 22 43  1  0
 25 44  1  0
 25 45  1  0
M  END
>  <meeko>  (18) 
{"is_sidechain": false}

>  <source_group>  (18) 
BACE1-401 observed AD isoform

>  <source_system>  (18) 
BACE1_verubecestat_401

>  <source_run>  (18) 
alternate_401_seed1103_ex32

>  <source_seed>  (18) 
1103

>  <vina_pose_rank>  (18) 
18

>  <vina_affinity_kcal_mol>  (18) 
-8.1440000000000001

>  <vina_rmsd_to_crystal_angstrom>  (18) 
6.5941000000000001

$$$$
BACE1_verubecestat_401__alternate_401_seed1103_ex32__pose19
     RDKit          3D

 45 47  0  0  0  0  0  0  0  0999 V2000
   22.8370    8.4240   22.1560 C   0  0  0  0  0  0  0  0  0  0  0  0
   21.9270    7.7380   23.0950 N   0  0  0  0  0  0  0  0  0  0  0  0
   21.8010    6.3330   23.1580 C   0  0  0  0  0  0  0  0  0  0  0  0
   22.7040    5.6590   22.3800 N   0  0  0  0  0  0  0  0  0  0  0  0
   20.9310    5.7190   23.8990 N   0  0  0  0  0  0  0  0  0  0  0  0
   19.9110    6.4480   24.6510 C   0  0  2  0  0  0  0  0  0  0  0  0
   19.4580    5.4240   25.6960 C   0  0  0  0  0  0  0  0  0  0  0  0
   18.7210    6.8230   23.7820 C   0  0  0  0  0  0  0  0  0  0  0  0
   18.5220    6.2280   22.5370 C   0  0  0  0  0  0  0  0  0  0  0  0
   17.4550    6.5490   21.7290 C   0  0  0  0  0  0  0  0  0  0  0  0
   17.3710    5.8760   20.5030 N   0  0  0  0  0  0  0  0  0  0  0  0
   16.6420    4.7410   20.1970 C   0  0  0  0  0  0  0  0  0  0  0  0
   16.0360    4.0530   21.0080 O   0  0  0  0  0  0  0  0  0  0  0  0
   16.5900    4.3910   18.7570 C   0  0  0  0  0  0  0  0  0  0  0  0
   15.4750    4.7200   18.0050 C   0  0  0  0  0  0  0  0  0  0  0  0
   15.4790    4.3670   16.6670 C   0  0  0  0  0  0  0  0  0  0  0  0
   16.5730    3.7160   16.1310 C   0  0  0  0  0  0  0  0  0  0  0  0
   16.6190    3.3460   14.8400 F   0  0  0  0  0  0  0  0  0  0  0  0
   17.6330    3.4270   16.9600 C   0  0  0  0  0  0  0  0  0  0  0  0
   17.6550    3.7510   18.2640 N   0  0  0  0  0  0  0  0  0  0  0  0
   16.5120    7.4800   22.1470 C   0  0  0  0  0  0  0  0  0  0  0  0
   16.6950    8.0830   23.3790 C   0  0  0  0  0  0  0  0  0  0  0  0
   17.7870    7.7740   24.1650 C   0  0  0  0  0  0  0  0  0  0  0  0
   17.9590    8.4010   25.3560 F   0  0  0  0  0  0  0  0  0  0  0  0
   20.5440    7.5980   25.4020 C   0  0  0  0  0  0  0  0  0  0  0  0
   21.2300    8.7830   24.2730 S   0  0  0  0  0  0  0  0  0  0  0  0
   22.3240    9.4350   24.9710 O   0  0  0  0  0  0  0  0  0  0  0  0
   20.2090    9.4780   23.5520 O   0  0  0  0  0  0  0  0  0  0  0  0
   23.5896    8.9913   22.7232 H   0  0  0  0  0  0  0  0  0  0  0  0
   23.3403    7.6787   21.5226 H   0  0  0  0  0  0  0  0  0  0  0  0
   22.2590    9.1130   21.5226 H   0  0  0  0  0  0  0  0  0  0  0  0
   22.6960    4.6750   22.3570 H   0  0  0  0  0  0  0  0  0  0  0  0
   23.3620    6.1580   21.8440 H   0  0  0  0  0  0  0  0  0  0  0  0
   19.6358    5.8260   26.7044 H   0  0  0  0  0  0  0  0  0  0  0  0
   18.3851    5.2187   25.5671 H   0  0  0  0  0  0  0  0  0  0  0  0
   20.0278    4.4919   25.5671 H   0  0  0  0  0  0  0  0  0  0  0  0
   19.2437    5.4749   22.1879 H   0  0  0  0  0  0  0  0  0  0  0  0
   17.8980    6.2600   19.7660 H   0  0  0  0  0  0  0  0  0  0  0  0
   14.6178    5.2426   18.4545 H   0  0  0  0  0  0  0  0  0  0  0  0
   14.6129    4.6043   16.0317 H   0  0  0  0  0  0  0  0  0  0  0  0
   18.5036    2.9060   16.5349 H   0  0  0  0  0  0  0  0  0  0  0  0
   15.6456    7.7303   21.5172 H   0  0  0  0  0  0  0  0  0  0  0  0
   15.9600    8.8189   23.7371 H   0  0  0  0  0  0  0  0  0  0  0  0
   19.7790    8.0898   26.0208 H   0  0  0  0  0  0  0  0  0  0  0  0
   21.3524    7.2042   26.0356 H   0  0  0  0  0  0  0  0  0  0  0  0
  1  2  1  0
  2  3  1  0
  3  4  1  0
  3  5  2  0
  5  6  1  0
  6  7  1  1
  6  8  1  0
  8  9  2  0
  9 10  1  0
 10 11  1  0
 11 12  1  0
 12 13  2  0
 12 14  1  0
 14 15  2  0
 15 16  1  0
 16 17  2  0
 17 18  1  0
 17 19  1  0
 19 20  2  0
 10 21  2  0
 21 22  1  0
 22 23  2  0
 23 24  1  0
  6 25  1  0
 25 26  1  0
 26 27  2  0
 26 28  2  0
 26  2  1  0
 23  8  1  0
 20 14  1  0
  1 29  1  0
  1 30  1  0
  1 31  1  0
  4 32  1  0
  4 33  1  0
  7 34  1  0
  7 35  1  0
  7 36  1  0
  9 37  1  0
 11 38  1  0
 15 39  1  0
 16 40  1  0
 19 41  1  0
 21 42  1  0
 22 43  1  0
 25 44  1  0
 25 45  1  0
M  END
>  <meeko>  (19) 
{"is_sidechain": false}

>  <source_group>  (19) 
BACE1-401 observed AD isoform

>  <source_system>  (19) 
BACE1_verubecestat_401

>  <source_run>  (19) 
alternate_401_seed1103_ex32

>  <source_seed>  (19) 
1103

>  <vina_pose_rank>  (19) 
19

>  <vina_affinity_kcal_mol>  (19) 
-8.1199999999999992

>  <vina_rmsd_to_crystal_angstrom>  (19) 
10.043699999999999

$$$$
BACE1_verubecestat_401__alternate_401_seed1103_ex32__pose20
     RDKit          3D

 45 47  0  0  0  0  0  0  0  0999 V2000
   18.9430    4.4090   18.2050 C   0  0  0  0  0  0  0  0  0  0  0  0
   17.4790    4.4260   18.3930 N   0  0  0  0  0  0  0  0  0  0  0  0
   16.7290    5.6200   18.4900 C   0  0  0  0  0  0  0  0  0  0  0  0
   17.4550    6.7540   18.2420 N   0  0  0  0  0  0  0  0  0  0  0  0
   15.4610    5.6550   18.7630 N   0  0  0  0  0  0  0  0  0  0  0  0
   14.7180    4.4470   19.1180 C   0  0  2  0  0  0  0  0  0  0  0  0
   13.2620    4.8590   18.8840 C   0  0  0  0  0  0  0  0  0  0  0  0
   14.8950    4.0790   20.5830 C   0  0  0  0  0  0  0  0  0  0  0  0
   15.7030    4.8410   21.4240 C   0  0  0  0  0  0  0  0  0  0  0  0
   15.8840    4.5300   22.7530 C   0  0  0  0  0  0  0  0  0  0  0  0
   16.7200    5.3790   23.4890 N   0  0  0  0  0  0  0  0  0  0  0  0
   18.0220    5.1560   23.8990 C   0  0  0  0  0  0  0  0  0  0  0  0
   18.6240    4.0960   23.7870 O   0  0  0  0  0  0  0  0  0  0  0  0
   18.7130    6.3330   24.4800 C   0  0  0  0  0  0  0  0  0  0  0  0
   19.5430    6.1740   25.5770 C   0  0  0  0  0  0  0  0  0  0  0  0
   20.1610    7.3050   26.0800 C   0  0  0  0  0  0  0  0  0  0  0  0
   19.9400    8.5320   25.4850 C   0  0  0  0  0  0  0  0  0  0  0  0
   20.5100    9.6590   25.9440 F   0  0  0  0  0  0  0  0  0  0  0  0
   19.0920    8.5900   24.4020 C   0  0  0  0  0  0  0  0  0  0  0  0
   18.4740    7.5100   23.8950 N   0  0  0  0  0  0  0  0  0  0  0  0
   15.2360    3.4360   23.3130 C   0  0  0  0  0  0  0  0  0  0  0  0
   14.4320    2.6660   22.4920 C   0  0  0  0  0  0  0  0  0  0  0  0
   14.2860    2.9720   21.1530 C   0  0  0  0  0  0  0  0  0  0  0  0
   13.5140    2.1830   20.3620 F   0  0  0  0  0  0  0  0  0  0  0  0
   15.0280    3.3390   18.1360 C   0  0  0  0  0  0  0  0  0  0  0  0
   16.7400    2.8800   18.2290 S   0  0  0  0  0  0  0  0  0  0  0  0
   17.1030    2.3670   16.9200 O   0  0  0  0  0  0  0  0  0  0  0  0
   17.0440    2.2230   19.4620 O   0  0  0  0  0  0  0  0  0  0  0  0
   19.4387    4.4032   19.1869 H   0  0  0  0  0  0  0  0  0  0  0  0
   19.2302    3.5075   17.6440 H   0  0  0  0  0  0  0  0  0  0  0  0
   19.2510    5.3036   17.6440 H   0  0  0  0  0  0  0  0  0  0  0  0
   17.0200    7.6360   18.2850 H   0  0  0  0  0  0  0  0  0  0  0  0
   18.4120    6.6870   18.0200 H   0  0  0  0  0  0  0  0  0  0  0  0
   12.7608    5.0008   19.8529 H   0  0  0  0  0  0  0  0  0  0  0  0
   13.2341    5.8003   18.3155 H   0  0  0  0  0  0  0  0  0  0  0  0
   12.7450    4.0719   18.3155 H   0  0  0  0  0  0  0  0  0  0  0  0
   16.2148    5.7229   21.0114 H   0  0  0  0  0  0  0  0  0  0  0  0
   16.3310    6.2460   23.7470 H   0  0  0  0  0  0  0  0  0  0  0  0
   19.7049    5.1854   26.0315 H   0  0  0  0  0  0  0  0  0  0  0  0
   20.8270    7.2274   26.9520 H   0  0  0  0  0  0  0  0  0  0  0  0
   18.9118    9.5668   23.9293 H   0  0  0  0  0  0  0  0  0  0  0  0
   15.3587    3.1894   24.3780 H   0  0  0  0  0  0  0  0  0  0  0  0
   13.9017    1.7982   22.9112 H   0  0  0  0  0  0  0  0  0  0  0  0
   14.4059    2.4630   18.3717 H   0  0  0  0  0  0  0  0  0  0  0  0
   14.8124    3.6973   17.1186 H   0  0  0  0  0  0  0  0  0  0  0  0
  1  2  1  0
  2  3  1  0
  3  4  1  0
  3  5  2  0
  5  6  1  0
  6  7  1  1
  6  8  1  0
  8  9  2  0
  9 10  1  0
 10 11  1  0
 11 12  1  0
 12 13  2  0
 12 14  1  0
 14 15  2  0
 15 16  1  0
 16 17  2  0
 17 18  1  0
 17 19  1  0
 19 20  2  0
 10 21  2  0
 21 22  1  0
 22 23  2  0
 23 24  1  0
  6 25  1  0
 25 26  1  0
 26 27  2  0
 26 28  2  0
 26  2  1  0
 23  8  1  0
 20 14  1  0
  1 29  1  0
  1 30  1  0
  1 31  1  0
  4 32  1  0
  4 33  1  0
  7 34  1  0
  7 35  1  0
  7 36  1  0
  9 37  1  0
 11 38  1  0
 15 39  1  0
 16 40  1  0
 19 41  1  0
 21 42  1  0
 22 43  1  0
 25 44  1  0
 25 45  1  0
M  END
>  <meeko>  (20) 
{"is_sidechain": false}

>  <source_group>  (20) 
BACE1-401 observed AD isoform

>  <source_system>  (20) 
BACE1_verubecestat_401

>  <source_run>  (20) 
alternate_401_seed1103_ex32

>  <source_seed>  (20) 
1103

>  <vina_pose_rank>  (20) 
20

>  <vina_affinity_kcal_mol>  (20) 
-7.5229999999999997

>  <vina_rmsd_to_crystal_angstrom>  (20) 
11.0473

$$$$
