BACE1_verubecestat_401__alternate_401_seed1103_ex32__pose01


 31 33  0  0  0  0  0  0  0  0999 V2000
   15.2900    4.5450   20.4460 C   0  0  0  0  0  0  0  0  0  0  0  0
   16.2020    4.3450   21.4810 C   0  0  0  0  0  0  0  0  0  0  0  0
   16.6350    5.3710   22.2900 C   0  0  0  0  0  0  0  0  0  0  0  0
   16.1850    6.6680   22.0820 C   0  0  0  0  0  0  0  0  0  0  0  0
   15.2770    6.8860   21.0610 C   0  0  0  0  0  0  0  0  0  0  0  0
   14.8260    5.8410   20.2770 C   0  0  0  0  0  0  0  0  0  0  0  0
   13.9130    6.0760   19.3010 F   0  0  0  0  0  0  0  0  0  0  0  0
   16.8650    4.7700   16.0160 C   0  0  0  0  0  0  0  0  0  0  0  0
   16.1510    4.1900   17.1710 N   0  0  0  0  0  0  0  0  0  0  0  0
   14.7490    4.2610   17.3240 C   0  0  0  0  0  0  0  0  0  0  0  0
   14.0970    4.7800   16.2370 N   0  0  0  0  0  0  0  0  0  0  0  0
   14.1160    3.8540   18.3810 N   0  0  0  0  0  0  0  0  0  0  0  0
   14.8280    3.3900   19.5710 C   0  0  0  0  0  0  0  0  0  0  0  0
   13.7570    2.5970   20.3240 C   0  0  0  0  0  0  0  0  0  0  0  0
   15.9120    2.4100   19.1790 C   0  0  0  0  0  0  0  0  0  0  0  0
   17.1420    3.2040   18.1760 S   0  0  0  0  0  0  0  0  0  0  0  0
   17.7180    2.1720   17.3320 O   0  0  0  0  0  0  0  0  0  0  0  0
   17.9090    4.1470   18.9290 O   0  0  0  0  0  0  0  0  0  0  0  0
   13.1170    4.8700   16.2480 H   0  0  0  0  0  0  0  0  0  0  0  0
   14.6080    5.0620   15.4440 H   0  0  0  0  0  0  0  0  0  0  0  0
   17.5540    5.0340   23.2920 N   0  0  0  0  0  0  0  0  0  0  0  0
   18.8880    5.3900   23.3860 C   0  0  0  0  0  0  0  0  0  0  0  0
   19.5260    5.9670   22.5150 O   0  0  0  0  0  0  0  0  0  0  0  0
   17.2070    4.4740   24.0230 H   0  0  0  0  0  0  0  0  0  0  0  0
   19.5430    5.0560   24.6740 C   0  0  0  0  0  0  0  0  0  0  0  0
   19.3710    5.8820   25.7710 C   0  0  0  0  0  0  0  0  0  0  0  0
   20.0070    5.5230   26.9470 C   0  0  0  0  0  0  0  0  0  0  0  0
   20.7750    4.3760   26.9910 C   0  0  0  0  0  0  0  0  0  0  0  0
   21.4190    3.9930   28.1070 F   0  0  0  0  0  0  0  0  0  0  0  0
   20.8910    3.6220   25.8450 C   0  0  0  0  0  0  0  0  0  0  0  0
   20.2910    3.9470   24.6890 N   0  0  0  0  0  0  0  0  0  0  0  0
  8  9  1  0
  9 10  1  0
 10 11  1  0
 10 12  2  0
 12 13  1  0
 13 14  1  0
 13  1  1  0
  1  2  2  0
  2  3  1  0
  3 21  1  0
 21 22  1  0
 22 23  2  0
 22 25  1  0
 25 26  2  0
 26 27  1  0
 27 28  2  0
 28 29  1  0
 28 30  1  0
 30 31  2  0
  3  4  2  0
  4  5  1  0
  5  6  2  0
  6  7  1  0
 13 15  1  0
 15 16  1  0
 16 17  2  0
 16 18  2  0
 16  9  1  0
  6  1  1  0
 31 25  1  0
 11 19  1  0
 11 20  1  0
 21 24  1  0
M  END
> <meeko>
{"is_sidechain": false}

> <source_group>
BACE1-401 observed AD isoform

> <source_system>
BACE1_verubecestat_401

> <source_run>
alternate_401_seed1103_ex32

> <source_seed>
1103

> <vina_pose_rank>
1

> <vina_affinity_kcal_mol>
-9.5250000000000004

> <vina_rmsd_to_crystal_angstrom>
10.8817

> <minimizedAffinity>
-9.52928

> <CNNscore>
0.1242393777

> <CNNaffinity>
5.4417343140

> <CNN_VS>
0.6760776639

> <CNNaffinity_variance>
0.3296513259

$$$$
BACE1_verubecestat_401__alternate_401_seed1103_ex32__pose02


 31 33  0  0  0  0  0  0  0  0999 V2000
   18.7550   11.2980   25.6970 C   0  0  0  0  0  0  0  0  0  0  0  0
   18.4590   10.4170   24.6580 C   0  0  0  0  0  0  0  0  0  0  0  0
   17.3240   10.5400   23.8880 C   0  0  0  0  0  0  0  0  0  0  0  0
   16.4080   11.5540   24.1430 C   0  0  0  0  0  0  0  0  0  0  0  0
   16.6870   12.4400   25.1680 C   0  0  0  0  0  0  0  0  0  0  0  0
   17.8460   12.3230   25.9110 C   0  0  0  0  0  0  0  0  0  0  0  0
   18.1100   13.2230   26.8930 F   0  0  0  0  0  0  0  0  0  0  0  0
   22.7120   11.2920   23.1490 C   0  0  0  0  0  0  0  0  0  0  0  0
   21.8930   11.2520   24.3760 N   0  0  0  0  0  0  0  0  0  0  0  0
   21.6190   10.0590   25.0810 C   0  0  0  0  0  0  0  0  0  0  0  0
   22.3030    8.9690   24.6140 N   0  0  0  0  0  0  0  0  0  0  0  0
   20.8150    9.9890   26.0970 N   0  0  0  0  0  0  0  0  0  0  0  0
   20.0190   11.1380   26.5270 C   0  0  0  0  0  0  0  0  0  0  0  0
   19.6260   10.7660   27.9590 C   0  0  0  0  0  0  0  0  0  0  0  0
   20.8900   12.3710   26.6120 C   0  0  0  0  0  0  0  0  0  0  0  0
   21.5170   12.8080   25.0100 S   0  0  0  0  0  0  0  0  0  0  0  0
   22.7760   13.4970   25.2320 O   0  0  0  0  0  0  0  0  0  0  0  0
   20.4800   13.2860   24.1500 O   0  0  0  0  0  0  0  0  0  0  0  0
   22.1790    8.0900   25.0410 H   0  0  0  0  0  0  0  0  0  0  0  0
   22.9190    9.0630   23.8520 H   0  0  0  0  0  0  0  0  0  0  0  0
   17.1450    9.5870   22.8770 N   0  0  0  0  0  0  0  0  0  0  0  0
   16.3970    8.4240   22.9190 C   0  0  0  0  0  0  0  0  0  0  0  0
   15.8600    7.9670   23.9200 O   0  0  0  0  0  0  0  0  0  0  0  0
   17.6100    9.7690   22.0290 H   0  0  0  0  0  0  0  0  0  0  0  0
   16.2310    7.7300   21.6190 C   0  0  0  0  0  0  0  0  0  0  0  0
   14.9690    7.3620   21.1880 C   0  0  0  0  0  0  0  0  0  0  0  0
   14.8730    6.7160   19.9680 C   0  0  0  0  0  0  0  0  0  0  0  0
   16.0140    6.4660   19.2300 C   0  0  0  0  0  0  0  0  0  0  0  0
   15.9710    5.8330   18.0450 F   0  0  0  0  0  0  0  0  0  0  0  0
   17.2260    6.8650   19.7460 C   0  0  0  0  0  0  0  0  0  0  0  0
   17.3510    7.4890   20.9290 N   0  0  0  0  0  0  0  0  0  0  0  0
  8  9  1  0
  9 10  1  0
 10 11  1  0
 10 12  2  0
 12 13  1  0
 13 14  1  0
 13  1  1  0
  1  2  2  0
  2  3  1  0
  3 21  1  0
 21 22  1  0
 22 23  2  0
 22 25  1  0
 25 26  2  0
 26 27  1  0
 27 28  2  0
 28 29  1  0
 28 30  1  0
 30 31  2  0
  3  4  2  0
  4  5  1  0
  5  6  2  0
  6  7  1  0
 13 15  1  0
 15 16  1  0
 16 17  2  0
 16 18  2  0
 16  9  1  0
  6  1  1  0
 31 25  1  0
 11 19  1  0
 11 20  1  0
 21 24  1  0
M  END
> <meeko>
{"is_sidechain": false}

> <source_group>
BACE1-401 observed AD isoform

> <source_system>
BACE1_verubecestat_401

> <source_run>
alternate_401_seed1103_ex32

> <source_seed>
1103

> <vina_pose_rank>
2

> <vina_affinity_kcal_mol>
-9.3810000000000002

> <vina_rmsd_to_crystal_angstrom>
9.4857999999999993

> <minimizedAffinity>
-8.67930

> <CNNscore>
0.6162105203

> <CNNaffinity>
5.8571295738

> <CNN_VS>
3.6092247963

> <CNNaffinity_variance>
0.0847525075

$$$$
BACE1_verubecestat_401__alternate_401_seed1103_ex32__pose03


 31 33  0  0  0  0  0  0  0  0999 V2000
   16.4160    5.8180   20.8230 C   0  0  0  0  0  0  0  0  0  0  0  0
   17.2360    5.4790   21.8980 C   0  0  0  0  0  0  0  0  0  0  0  0
   18.6090    5.4890   21.8080 C   0  0  0  0  0  0  0  0  0  0  0  0
   19.2330    5.8210   20.6120 C   0  0  0  0  0  0  0  0  0  0  0  0
   18.4350    6.1640   19.5350 C   0  0  0  0  0  0  0  0  0  0  0  0
   17.0590    6.1810   19.6500 C   0  0  0  0  0  0  0  0  0  0  0  0
   16.2990    6.5490   18.5860 F   0  0  0  0  0  0  0  0  0  0  0  0
   14.3080    2.6050   18.1050 C   0  0  0  0  0  0  0  0  0  0  0  0
   14.3900    3.6810   19.1120 N   0  0  0  0  0  0  0  0  0  0  0  0
   14.0660    5.0270   18.8300 C   0  0  0  0  0  0  0  0  0  0  0  0
   13.5250    5.2180   17.5870 N   0  0  0  0  0  0  0  0  0  0  0  0
   14.2350    6.0010   19.6690 N   0  0  0  0  0  0  0  0  0  0  0  0
   14.9010    5.8010   20.9550 C   0  0  0  0  0  0  0  0  0  0  0  0
   14.4610    7.0250   21.7640 C   0  0  0  0  0  0  0  0  0  0  0  0
   14.3320    4.5830   21.6500 C   0  0  0  0  0  0  0  0  0  0  0  0
   14.6680    3.1130   20.7140 S   0  0  0  0  0  0  0  0  0  0  0  0
   13.6070    2.1720   21.0260 O   0  0  0  0  0  0  0  0  0  0  0  0
   16.0600    2.7880   20.7250 O   0  0  0  0  0  0  0  0  0  0  0  0
   13.2650    6.1230   17.2970 H   0  0  0  0  0  0  0  0  0  0  0  0
   13.3940    4.4520   16.9830 H   0  0  0  0  0  0  0  0  0  0  0  0
   19.3170    5.1250   22.9610 N   0  0  0  0  0  0  0  0  0  0  0  0
   19.3130    5.7420   24.1990 C   0  0  0  0  0  0  0  0  0  0  0  0
   18.7720    6.8100   24.4520 O   0  0  0  0  0  0  0  0  0  0  0  0
   19.8900    4.3280   22.8790 H   0  0  0  0  0  0  0  0  0  0  0  0
   20.0020    4.9960   25.2800 C   0  0  0  0  0  0  0  0  0  0  0  0
   19.9550    5.4650   26.5820 C   0  0  0  0  0  0  0  0  0  0  0  0
   20.6170    4.7310   27.5500 C   0  0  0  0  0  0  0  0  0  0  0  0
   21.2870    3.5750   27.1990 C   0  0  0  0  0  0  0  0  0  0  0  0
   21.9510    2.8350   28.1030 F   0  0  0  0  0  0  0  0  0  0  0  0
   21.2820    3.1930   25.8770 C   0  0  0  0  0  0  0  0  0  0  0  0
   20.6530    3.8870   24.9140 N   0  0  0  0  0  0  0  0  0  0  0  0
  8  9  1  0
  9 10  1  0
 10 11  1  0
 10 12  2  0
 12 13  1  0
 13 14  1  0
 13  1  1  0
  1  2  2  0
  2  3  1  0
  3 21  1  0
 21 22  1  0
 22 23  2  0
 22 25  1  0
 25 26  2  0
 26 27  1  0
 27 28  2  0
 28 29  1  0
 28 30  1  0
 30 31  2  0
  3  4  2  0
  4  5  1  0
  5  6  2  0
  6  7  1  0
 13 15  1  0
 15 16  1  0
 16 17  2  0
 16 18  2  0
 16  9  1  0
  6  1  1  0
 31 25  1  0
 11 19  1  0
 11 20  1  0
 21 24  1  0
M  END
> <meeko>
{"is_sidechain": false}

> <source_group>
BACE1-401 observed AD isoform

> <source_system>
BACE1_verubecestat_401

> <source_run>
alternate_401_seed1103_ex32

> <source_seed>
1103

> <vina_pose_rank>
3

> <vina_affinity_kcal_mol>
-9.2100000000000009

> <vina_rmsd_to_crystal_angstrom>
10.3432

> <minimizedAffinity>
-9.31343

> <CNNscore>
0.1023833528

> <CNNaffinity>
5.1693091393

> <CNN_VS>
0.5292512178

> <CNNaffinity_variance>
0.4978102744

$$$$
BACE1_verubecestat_401__alternate_401_seed1103_ex32__pose04


 31 33  0  0  0  0  0  0  0  0999 V2000
   19.2400   11.7280   25.9500 C   0  0  0  0  0  0  0  0  0  0  0  0
   19.4130   10.3820   26.2680 C   0  0  0  0  0  0  0  0  0  0  0  0
   20.3530    9.5930   25.6450 C   0  0  0  0  0  0  0  0  0  0  0  0
   21.1610   10.1180   24.6450 C   0  0  0  0  0  0  0  0  0  0  0  0
   21.0060   11.4530   24.3180 C   0  0  0  0  0  0  0  0  0  0  0  0
   20.0800   12.2410   24.9730 C   0  0  0  0  0  0  0  0  0  0  0  0
   19.9680   13.5560   24.6540 F   0  0  0  0  0  0  0  0  0  0  0  0
   20.2090   12.5450   30.4820 C   0  0  0  0  0  0  0  0  0  0  0  0
   19.4470   12.6460   29.2220 N   0  0  0  0  0  0  0  0  0  0  0  0
   18.2690   11.9070   28.9740 C   0  0  0  0  0  0  0  0  0  0  0  0
   17.8130   11.2070   30.0580 N   0  0  0  0  0  0  0  0  0  0  0  0
   17.6470   11.9010   27.8350 N   0  0  0  0  0  0  0  0  0  0  0  0
   18.1940   12.5750   26.6580 C   0  0  0  0  0  0  0  0  0  0  0  0
   16.9720   12.7160   25.7460 C   0  0  0  0  0  0  0  0  0  0  0  0
   18.6410   13.9730   27.0210 C   0  0  0  0  0  0  0  0  0  0  0  0
   19.9730   13.9210   28.1930 S   0  0  0  0  0  0  0  0  0  0  0  0
   19.8970   15.1520   28.9610 O   0  0  0  0  0  0  0  0  0  0  0  0
   21.1730   13.4140   27.6050 O   0  0  0  0  0  0  0  0  0  0  0  0
   16.9970   10.6610   29.9840 H   0  0  0  0  0  0  0  0  0  0  0  0
   18.3010   11.2490   30.9130 H   0  0  0  0  0  0  0  0  0  0  0  0
   20.4220    8.2550   26.0570 N   0  0  0  0  0  0  0  0  0  0  0  0
   19.6630    7.1840   25.6200 C   0  0  0  0  0  0  0  0  0  0  0  0
   18.6960    7.2640   24.8740 O   0  0  0  0  0  0  0  0  0  0  0  0
   21.0970    8.0520   26.7440 H   0  0  0  0  0  0  0  0  0  0  0  0
   20.1160    5.8530   26.0920 C   0  0  0  0  0  0  0  0  0  0  0  0
   20.0570    5.5400   27.4390 C   0  0  0  0  0  0  0  0  0  0  0  0
   20.4950    4.2850   27.8230 C   0  0  0  0  0  0  0  0  0  0  0  0
   20.9640    3.3990   26.8730 C   0  0  0  0  0  0  0  0  0  0  0  0
   21.4080    2.1730   27.2000 F   0  0  0  0  0  0  0  0  0  0  0  0
   20.9890    3.8040   25.5580 C   0  0  0  0  0  0  0  0  0  0  0  0
   20.5770    5.0170   25.1550 N   0  0  0  0  0  0  0  0  0  0  0  0
  8  9  1  0
  9 10  1  0
 10 11  1  0
 10 12  2  0
 12 13  1  0
 13 14  1  0
 13  1  1  0
  1  2  2  0
  2  3  1  0
  3 21  1  0
 21 22  1  0
 22 23  2  0
 22 25  1  0
 25 26  2  0
 26 27  1  0
 27 28  2  0
 28 29  1  0
 28 30  1  0
 30 31  2  0
  3  4  2  0
  4  5  1  0
  5  6  2  0
  6  7  1  0
 13 15  1  0
 15 16  1  0
 16 17  2  0
 16 18  2  0
 16  9  1  0
  6  1  1  0
 31 25  1  0
 11 19  1  0
 11 20  1  0
 21 24  1  0
M  END
> <meeko>
{"is_sidechain": false}

> <source_group>
BACE1-401 observed AD isoform

> <source_system>
BACE1_verubecestat_401

> <source_run>
alternate_401_seed1103_ex32

> <source_seed>
1103

> <vina_pose_rank>
4

> <vina_affinity_kcal_mol>
-9.0999999999999996

> <vina_rmsd_to_crystal_angstrom>
8.4097000000000008

> <minimizedAffinity>
-8.56694

> <CNNscore>
0.1578659415

> <CNNaffinity>
4.9687294960

> <CNN_VS>
0.7843931317

> <CNNaffinity_variance>
0.7085769176

$$$$
BACE1_verubecestat_401__alternate_401_seed1103_ex32__pose05


 31 33  0  0  0  0  0  0  0  0999 V2000
   24.2420   11.7950   20.4410 C   0  0  0  0  0  0  0  0  0  0  0  0
   24.0530   12.2340   21.7510 C   0  0  0  0  0  0  0  0  0  0  0  0
   23.4550   11.4500   22.7110 C   0  0  0  0  0  0  0  0  0  0  0  0
   22.9900   10.1800   22.3930 C   0  0  0  0  0  0  0  0  0  0  0  0
   23.1720    9.7260   21.0980 C   0  0  0  0  0  0  0  0  0  0  0  0
   23.8030   10.5120   20.1540 C   0  0  0  0  0  0  0  0  0  0  0  0
   23.9950   10.0320   18.8980 F   0  0  0  0  0  0  0  0  0  0  0  0
   28.3910   13.5360   21.8200 C   0  0  0  0  0  0  0  0  0  0  0  0
   27.2640   13.2950   20.8970 N   0  0  0  0  0  0  0  0  0  0  0  0
   26.2530   14.2500   20.6500 C   0  0  0  0  0  0  0  0  0  0  0  0
   26.4920   15.4720   21.2220 N   0  0  0  0  0  0  0  0  0  0  0  0
   25.2010   14.0170   19.9290 N   0  0  0  0  0  0  0  0  0  0  0  0
   24.9090   12.6840   19.4040 C   0  0  0  0  0  0  0  0  0  0  0  0
   23.9090   12.9700   18.2800 C   0  0  0  0  0  0  0  0  0  0  0  0
   26.1460   12.0990   18.7590 C   0  0  0  0  0  0  0  0  0  0  0  0
   27.4270   11.8580   19.9630 S   0  0  0  0  0  0  0  0  0  0  0  0
   28.6880   11.9500   19.2490 O   0  0  0  0  0  0  0  0  0  0  0  0
   27.0980   10.8140   20.8820 O   0  0  0  0  0  0  0  0  0  0  0  0
   25.8440   16.2040   21.1060 H   0  0  0  0  0  0  0  0  0  0  0  0
   27.3110   15.6180   21.7480 H   0  0  0  0  0  0  0  0  0  0  0  0
   23.3240   12.0110   23.9880 N   0  0  0  0  0  0  0  0  0  0  0  0
   22.3720   12.9090   24.4360 C   0  0  0  0  0  0  0  0  0  0  0  0
   21.5440   13.4690   23.7290 O   0  0  0  0  0  0  0  0  0  0  0  0
   23.9950   11.7300   24.6510 H   0  0  0  0  0  0  0  0  0  0  0  0
   22.3710   13.1550   25.8990 C   0  0  0  0  0  0  0  0  0  0  0  0
   21.3580   12.6360   26.6860 C   0  0  0  0  0  0  0  0  0  0  0  0
   21.4060   12.8980   28.0440 C   0  0  0  0  0  0  0  0  0  0  0  0
   22.4420   13.6490   28.5640 C   0  0  0  0  0  0  0  0  0  0  0  0
   22.5260   13.9360   29.8740 F   0  0  0  0  0  0  0  0  0  0  0  0
   23.4010   14.1260   27.6990 C   0  0  0  0  0  0  0  0  0  0  0  0
   23.3780   13.8940   26.3760 N   0  0  0  0  0  0  0  0  0  0  0  0
  8  9  1  0
  9 10  1  0
 10 11  1  0
 10 12  2  0
 12 13  1  0
 13 14  1  0
 13  1  1  0
  1  2  2  0
  2  3  1  0
  3 21  1  0
 21 22  1  0
 22 23  2  0
 22 25  1  0
 25 26  2  0
 26 27  1  0
 27 28  2  0
 28 29  1  0
 28 30  1  0
 30 31  2  0
  3  4  2  0
  4  5  1  0
  5  6  2  0
  6  7  1  0
 13 15  1  0
 15 16  1  0
 16 17  2  0
 16 18  2  0
 16  9  1  0
  6  1  1  0
 31 25  1  0
 11 19  1  0
 11 20  1  0
 21 24  1  0
M  END
> <meeko>
{"is_sidechain": false}

> <source_group>
BACE1-401 observed AD isoform

> <source_system>
BACE1_verubecestat_401

> <source_run>
alternate_401_seed1103_ex32

> <source_seed>
1103

> <vina_pose_rank>
5

> <vina_affinity_kcal_mol>
-9.0429999999999993

> <vina_rmsd_to_crystal_angstrom>
7.1516999999999999

> <minimizedAffinity>
-8.39256

> <CNNscore>
0.6091575027

> <CNNaffinity>
5.6426730156

> <CNN_VS>
3.4372766018

> <CNNaffinity_variance>
0.1075339317

$$$$
BACE1_verubecestat_401__alternate_401_seed1103_ex32__pose06


 31 33  0  0  0  0  0  0  0  0999 V2000
   17.4080    5.8800   22.3520 C   0  0  0  0  0  0  0  0  0  0  0  0
   18.1540    5.2950   23.3740 C   0  0  0  0  0  0  0  0  0  0  0  0
   19.5290    5.2420   23.3450 C   0  0  0  0  0  0  0  0  0  0  0  0
   20.2300    5.7590   22.2630 C   0  0  0  0  0  0  0  0  0  0  0  0
   19.5060    6.3470   21.2400 C   0  0  0  0  0  0  0  0  0  0  0  0
   18.1290    6.4220   21.2980 C   0  0  0  0  0  0  0  0  0  0  0  0
   17.4440    7.0300   20.2960 F   0  0  0  0  0  0  0  0  0  0  0  0
   15.3100    2.1720   20.3530 C   0  0  0  0  0  0  0  0  0  0  0  0
   15.3860    3.4500   21.0880 N   0  0  0  0  0  0  0  0  0  0  0  0
   15.1150    4.7000   20.4890 C   0  0  0  0  0  0  0  0  0  0  0  0
   14.6300    4.6110   19.2120 N   0  0  0  0  0  0  0  0  0  0  0  0
   15.2820    5.8390   21.0880 N   0  0  0  0  0  0  0  0  0  0  0  0
   15.8890    5.9270   22.4150 C   0  0  0  0  0  0  0  0  0  0  0  0
   15.4570    7.3130   22.8990 C   0  0  0  0  0  0  0  0  0  0  0  0
   15.2560    4.9150   23.3440 C   0  0  0  0  0  0  0  0  0  0  0  0
   15.5820    3.2620   22.7880 S   0  0  0  0  0  0  0  0  0  0  0  0
   14.4810    2.4410   23.2590 O   0  0  0  0  0  0  0  0  0  0  0  0
   16.9610    2.9180   22.9370 O   0  0  0  0  0  0  0  0  0  0  0  0
   14.4110    5.4290   18.7100 H   0  0  0  0  0  0  0  0  0  0  0  0
   14.4990    3.7280   18.7950 H   0  0  0  0  0  0  0  0  0  0  0  0
   20.1570    4.6240   24.4340 N   0  0  0  0  0  0  0  0  0  0  0  0
   21.2740    3.8090   24.4300 C   0  0  0  0  0  0  0  0  0  0  0  0
   21.8330    3.3840   23.4270 O   0  0  0  0  0  0  0  0  0  0  0  0
   19.7500    4.7920   25.3150 H   0  0  0  0  0  0  0  0  0  0  0  0
   21.8230    3.4800   25.7680 C   0  0  0  0  0  0  0  0  0  0  0  0
   21.2210    3.9880   26.9060 C   0  0  0  0  0  0  0  0  0  0  0  0
   21.7750    3.6500   28.1280 C   0  0  0  0  0  0  0  0  0  0  0  0
   22.8870    2.8320   28.1760 C   0  0  0  0  0  0  0  0  0  0  0  0
   23.4660    2.4850   29.3390 F   0  0  0  0  0  0  0  0  0  0  0  0
   23.4190    2.3810   26.9890 C   0  0  0  0  0  0  0  0  0  0  0  0
   22.9060    2.6960   25.7890 N   0  0  0  0  0  0  0  0  0  0  0  0
  8  9  1  0
  9 10  1  0
 10 11  1  0
 10 12  2  0
 12 13  1  0
 13 14  1  0
 13  1  1  0
  1  2  2  0
  2  3  1  0
  3 21  1  0
 21 22  1  0
 22 23  2  0
 22 25  1  0
 25 26  2  0
 26 27  1  0
 27 28  2  0
 28 29  1  0
 28 30  1  0
 30 31  2  0
  3  4  2  0
  4  5  1  0
  5  6  2  0
  6  7  1  0
 13 15  1  0
 15 16  1  0
 16 17  2  0
 16 18  2  0
 16  9  1  0
  6  1  1  0
 31 25  1  0
 11 19  1  0
 11 20  1  0
 21 24  1  0
M  END
> <meeko>
{"is_sidechain": false}

> <source_group>
BACE1-401 observed AD isoform

> <source_system>
BACE1_verubecestat_401

> <source_run>
alternate_401_seed1103_ex32

> <source_seed>
1103

> <vina_pose_rank>
6

> <vina_affinity_kcal_mol>
-8.8339999999999996

> <vina_rmsd_to_crystal_angstrom>
9.6805000000000003

> <minimizedAffinity>
-9.02735

> <CNNscore>
0.2135086656

> <CNNaffinity>
5.6071772575

> <CNN_VS>
1.1971809864

> <CNNaffinity_variance>
0.0871985778

$$$$
BACE1_verubecestat_401__alternate_401_seed1103_ex32__pose07


 31 33  0  0  0  0  0  0  0  0999 V2000
   18.7220    7.4240   22.4180 C   0  0  0  0  0  0  0  0  0  0  0  0
   18.0170    6.6770   21.4760 C   0  0  0  0  0  0  0  0  0  0  0  0
   16.7080    6.9510   21.1490 C   0  0  0  0  0  0  0  0  0  0  0  0
   16.0290    7.9890   21.7750 C   0  0  0  0  0  0  0  0  0  0  0  0
   16.7150    8.7440   22.7100 C   0  0  0  0  0  0  0  0  0  0  0  0
   18.0380    8.4770   23.0050 C   0  0  0  0  0  0  0  0  0  0  0  0
   18.6970    9.2510   23.9050 F   0  0  0  0  0  0  0  0  0  0  0  0
   19.2810    5.4140   26.6370 C   0  0  0  0  0  0  0  0  0  0  0  0
   19.7000    5.9410   25.3230 N   0  0  0  0  0  0  0  0  0  0  0  0
   20.3200    7.2000   25.1600 C   0  0  0  0  0  0  0  0  0  0  0  0
   20.6350    7.8200   26.3390 N   0  0  0  0  0  0  0  0  0  0  0  0
   20.5950    7.7240   24.0060 N   0  0  0  0  0  0  0  0  0  0  0  0
   20.1690    7.0980   22.7550 C   0  0  0  0  0  0  0  0  0  0  0  0
   21.0800    7.7550   21.7150 C   0  0  0  0  0  0  0  0  0  0  0  0
   20.5060    5.6230   22.7720 C   0  0  0  0  0  0  0  0  0  0  0  0
   19.5990    4.7870   24.0490 S   0  0  0  0  0  0  0  0  0  0  0  0
   20.4000    3.6410   24.4420 O   0  0  0  0  0  0  0  0  0  0  0  0
   18.2020    4.7270   23.7510 O   0  0  0  0  0  0  0  0  0  0  0  0
   21.0710    8.7030   26.3290 H   0  0  0  0  0  0  0  0  0  0  0  0
   20.4270    7.3830   27.1960 H   0  0  0  0  0  0  0  0  0  0  0  0
   16.1140    6.1210   20.1890 N   0  0  0  0  0  0  0  0  0  0  0  0
   14.8110    5.6580   20.1450 C   0  0  0  0  0  0  0  0  0  0  0  0
   13.9820    5.8030   21.0340 O   0  0  0  0  0  0  0  0  0  0  0  0
   16.6980    5.8310   19.4520 H   0  0  0  0  0  0  0  0  0  0  0  0
   14.4260    4.9700   18.8890 C   0  0  0  0  0  0  0  0  0  0  0  0
   13.8800    5.6950   17.8430 C   0  0  0  0  0  0  0  0  0  0  0  0
   13.5370    5.0020   16.6960 C   0  0  0  0  0  0  0  0  0  0  0  0
   13.7480    3.6390   16.6260 C   0  0  0  0  0  0  0  0  0  0  0  0
   13.4220    2.9220   15.5370 F   0  0  0  0  0  0  0  0  0  0  0  0
   14.2910    3.0050   17.7210 C   0  0  0  0  0  0  0  0  0  0  0  0
   14.6280    3.6490   18.8500 N   0  0  0  0  0  0  0  0  0  0  0  0
  8  9  1  0
  9 10  1  0
 10 11  1  0
 10 12  2  0
 12 13  1  0
 13 14  1  0
 13  1  1  0
  1  2  2  0
  2  3  1  0
  3 21  1  0
 21 22  1  0
 22 23  2  0
 22 25  1  0
 25 26  2  0
 26 27  1  0
 27 28  2  0
 28 29  1  0
 28 30  1  0
 30 31  2  0
  3  4  2  0
  4  5  1  0
  5  6  2  0
  6  7  1  0
 13 15  1  0
 15 16  1  0
 16 17  2  0
 16 18  2  0
 16  9  1  0
  6  1  1  0
 31 25  1  0
 11 19  1  0
 11 20  1  0
 21 24  1  0
M  END
> <meeko>
{"is_sidechain": false}

> <source_group>
BACE1-401 observed AD isoform

> <source_system>
BACE1_verubecestat_401

> <source_run>
alternate_401_seed1103_ex32

> <source_seed>
1103

> <vina_pose_rank>
7

> <vina_affinity_kcal_mol>
-8.7490000000000006

> <vina_rmsd_to_crystal_angstrom>
11.2338

> <minimizedAffinity>
-8.91814

> <CNNscore>
0.4398387372

> <CNNaffinity>
5.8905272484

> <CNN_VS>
2.5908820629

> <CNNaffinity_variance>
0.3981620967

$$$$
BACE1_verubecestat_401__alternate_401_seed1103_ex32__pose08


 31 33  0  0  0  0  0  0  0  0999 V2000
   16.6000    7.6450   21.5060 C   0  0  0  0  0  0  0  0  0  0  0  0
   17.4440    8.5180   22.1910 C   0  0  0  0  0  0  0  0  0  0  0  0
   16.9680    9.6020   22.8930 C   0  0  0  0  0  0  0  0  0  0  0  0
   15.6070    9.8780   22.9240 C   0  0  0  0  0  0  0  0  0  0  0  0
   14.7540    9.0200   22.2530 C   0  0  0  0  0  0  0  0  0  0  0  0
   15.2420    7.9180   21.5790 C   0  0  0  0  0  0  0  0  0  0  0  0
   14.3820    7.0750   20.9530 F   0  0  0  0  0  0  0  0  0  0  0  0
   19.3520    4.8410   24.0970 C   0  0  0  0  0  0  0  0  0  0  0  0
   18.6230    5.2830   22.8920 N   0  0  0  0  0  0  0  0  0  0  0  0
   19.2550    5.9170   21.7990 C   0  0  0  0  0  0  0  0  0  0  0  0
   20.6200    5.9490   21.8890 N   0  0  0  0  0  0  0  0  0  0  0  0
   18.6160    6.4080   20.7820 N   0  0  0  0  0  0  0  0  0  0  0  0
   17.1550    6.4530   20.7410 C   0  0  0  0  0  0  0  0  0  0  0  0
   16.8600    6.6410   19.2510 C   0  0  0  0  0  0  0  0  0  0  0  0
   16.5830    5.1120   21.1410 C   0  0  0  0  0  0  0  0  0  0  0  0
   16.9930    4.7320   22.8260 S   0  0  0  0  0  0  0  0  0  0  0  0
   17.0240    3.2840   22.9280 O   0  0  0  0  0  0  0  0  0  0  0  0
   16.3060    5.5870   23.7420 O   0  0  0  0  0  0  0  0  0  0  0  0
   21.1510    6.3700   21.1750 H   0  0  0  0  0  0  0  0  0  0  0  0
   21.0720    5.5500   22.6680 H   0  0  0  0  0  0  0  0  0  0  0  0
   17.9230   10.4020   23.5340 N   0  0  0  0  0  0  0  0  0  0  0  0
   17.8140   11.0620   24.7460 C   0  0  0  0  0  0  0  0  0  0  0  0
   16.7880   11.1560   25.4070 O   0  0  0  0  0  0  0  0  0  0  0  0
   18.7810   10.5080   23.0630 H   0  0  0  0  0  0  0  0  0  0  0  0
   19.0730   11.6560   25.2590 C   0  0  0  0  0  0  0  0  0  0  0  0
   19.7810   12.5530   24.4790 C   0  0  0  0  0  0  0  0  0  0  0  0
   20.9500   13.0750   25.0060 C   0  0  0  0  0  0  0  0  0  0  0  0
   21.3640   12.6960   26.2680 C   0  0  0  0  0  0  0  0  0  0  0  0
   22.4960   13.1690   26.8180 F   0  0  0  0  0  0  0  0  0  0  0  0
   20.5940   11.7920   26.9650 C   0  0  0  0  0  0  0  0  0  0  0  0
   19.4590   11.2650   26.4770 N   0  0  0  0  0  0  0  0  0  0  0  0
  8  9  1  0
  9 10  1  0
 10 11  1  0
 10 12  2  0
 12 13  1  0
 13 14  1  0
 13  1  1  0
  1  2  2  0
  2  3  1  0
  3 21  1  0
 21 22  1  0
 22 23  2  0
 22 25  1  0
 25 26  2  0
 26 27  1  0
 27 28  2  0
 28 29  1  0
 28 30  1  0
 30 31  2  0
  3  4  2  0
  4  5  1  0
  5  6  2  0
  6  7  1  0
 13 15  1  0
 15 16  1  0
 16 17  2  0
 16 18  2  0
 16  9  1  0
  6  1  1  0
 31 25  1  0
 11 19  1  0
 11 20  1  0
 21 24  1  0
M  END
> <meeko>
{"is_sidechain": false}

> <source_group>
BACE1-401 observed AD isoform

> <source_system>
BACE1_verubecestat_401

> <source_run>
alternate_401_seed1103_ex32

> <source_seed>
1103

> <vina_pose_rank>
8

> <vina_affinity_kcal_mol>
-8.7230000000000008

> <vina_rmsd_to_crystal_angstrom>
8.8890999999999991

> <minimizedAffinity>
-8.26994

> <CNNscore>
0.1372128278

> <CNNaffinity>
4.8975605965

> <CNN_VS>
0.6720081568

> <CNNaffinity_variance>
1.1780005693

$$$$
BACE1_verubecestat_401__alternate_401_seed1103_ex32__pose09


 31 33  0  0  0  0  0  0  0  0999 V2000
   23.7930   11.6870   21.2070 C   0  0  0  0  0  0  0  0  0  0  0  0
   23.3540   11.9640   22.5010 C   0  0  0  0  0  0  0  0  0  0  0  0
   22.7930   11.0020   23.3100 C   0  0  0  0  0  0  0  0  0  0  0  0
   22.6230    9.7040   22.8450 C   0  0  0  0  0  0  0  0  0  0  0  0
   23.0560    9.4100   21.5640 C   0  0  0  0  0  0  0  0  0  0  0  0
   23.6460   10.3780   20.7750 C   0  0  0  0  0  0  0  0  0  0  0  0
   24.0890   10.0570   19.5330 F   0  0  0  0  0  0  0  0  0  0  0  0
   27.4810   13.8350   23.1920 C   0  0  0  0  0  0  0  0  0  0  0  0
   26.4950   13.5400   22.1330 N   0  0  0  0  0  0  0  0  0  0  0  0
   25.3780   14.3640   21.8690 C   0  0  0  0  0  0  0  0  0  0  0  0
   25.3730   15.5360   22.5780 N   0  0  0  0  0  0  0  0  0  0  0  0
   24.4460   14.0660   21.0190 N   0  0  0  0  0  0  0  0  0  0  0  0
   24.4120   12.7720   20.3390 C   0  0  0  0  0  0  0  0  0  0  0  0
   23.4900   13.0350   19.1450 C   0  0  0  0  0  0  0  0  0  0  0  0
   25.7780   12.4430   19.7800 C   0  0  0  0  0  0  0  0  0  0  0  0
   26.9620   12.2540   21.0880 S   0  0  0  0  0  0  0  0  0  0  0  0
   28.2560   12.6020   20.5290 O   0  0  0  0  0  0  0  0  0  0  0  0
   26.7120   11.0780   21.8610 O   0  0  0  0  0  0  0  0  0  0  0  0
   24.6350   16.1770   22.4630 H   0  0  0  0  0  0  0  0  0  0  0  0
   26.1080   15.7370   23.2020 H   0  0  0  0  0  0  0  0  0  0  0  0
   22.3910   11.4120   24.5880 N   0  0  0  0  0  0  0  0  0  0  0  0
   21.4390   12.3580   24.9240 C   0  0  0  0  0  0  0  0  0  0  0  0
   20.8720   13.0990   24.1320 O   0  0  0  0  0  0  0  0  0  0  0  0
   22.8440   10.9710   25.3420 H   0  0  0  0  0  0  0  0  0  0  0  0
   21.0880   12.4190   26.3640 C   0  0  0  0  0  0  0  0  0  0  0  0
   20.0470   13.2270   26.7880 C   0  0  0  0  0  0  0  0  0  0  0  0
   19.7640   13.2460   28.1420 C   0  0  0  0  0  0  0  0  0  0  0  0
   20.5080   12.4730   29.0120 C   0  0  0  0  0  0  0  0  0  0  0  0
   20.2760   12.4670   30.3360 F   0  0  0  0  0  0  0  0  0  0  0  0
   21.5280   11.7060   28.4950 C   0  0  0  0  0  0  0  0  0  0  0  0
   21.8300   11.6710   27.1870 N   0  0  0  0  0  0  0  0  0  0  0  0
  8  9  1  0
  9 10  1  0
 10 11  1  0
 10 12  2  0
 12 13  1  0
 13 14  1  0
 13  1  1  0
  1  2  2  0
  2  3  1  0
  3 21  1  0
 21 22  1  0
 22 23  2  0
 22 25  1  0
 25 26  2  0
 26 27  1  0
 27 28  2  0
 28 29  1  0
 28 30  1  0
 30 31  2  0
  3  4  2  0
  4  5  1  0
  5  6  2  0
  6  7  1  0
 13 15  1  0
 15 16  1  0
 16 17  2  0
 16 18  2  0
 16  9  1  0
  6  1  1  0
 31 25  1  0
 11 19  1  0
 11 20  1  0
 21 24  1  0
M  END
> <meeko>
{"is_sidechain": false}

> <source_group>
BACE1-401 observed AD isoform

> <source_system>
BACE1_verubecestat_401

> <source_run>
alternate_401_seed1103_ex32

> <source_seed>
1103

> <vina_pose_rank>
9

> <vina_affinity_kcal_mol>
-8.5839999999999996

> <vina_rmsd_to_crystal_angstrom>
7.4097

> <minimizedAffinity>
-8.02235

> <CNNscore>
0.2053528875

> <CNNaffinity>
5.1100134850

> <CNN_VS>
1.0493559837

> <CNNaffinity_variance>
0.5472869873

$$$$
BACE1_verubecestat_401__alternate_401_seed1103_ex32__pose10


 31 33  0  0  0  0  0  0  0  0999 V2000
   24.9250   11.2700   19.8520 C   0  0  0  0  0  0  0  0  0  0  0  0
   24.1200   10.5850   20.7610 C   0  0  0  0  0  0  0  0  0  0  0  0
   24.2690    9.2390   21.0090 C   0  0  0  0  0  0  0  0  0  0  0  0
   25.2310    8.5020   20.3300 C   0  0  0  0  0  0  0  0  0  0  0  0
   26.0420    9.1660   19.4270 C   0  0  0  0  0  0  0  0  0  0  0  0
   25.9020   10.5230   19.2120 C   0  0  0  0  0  0  0  0  0  0  0  0
   26.7290   11.1560   18.3420 F   0  0  0  0  0  0  0  0  0  0  0  0
   25.6290   13.9380   23.6650 C   0  0  0  0  0  0  0  0  0  0  0  0
   25.3340   13.6560   22.2460 N   0  0  0  0  0  0  0  0  0  0  0  0
   24.0270   13.6910   21.7100 C   0  0  0  0  0  0  0  0  0  0  0  0
   23.0810   14.1560   22.5830 N   0  0  0  0  0  0  0  0  0  0  0  0
   23.7360   13.3420   20.4950 N   0  0  0  0  0  0  0  0  0  0  0  0
   24.7370   12.7580   19.6030 C   0  0  0  0  0  0  0  0  0  0  0  0
   24.1160   12.9530   18.2170 C   0  0  0  0  0  0  0  0  0  0  0  0
   26.0070   13.5790   19.6390 C   0  0  0  0  0  0  0  0  0  0  0  0
   26.7370   13.5340   21.2560 S   0  0  0  0  0  0  0  0  0  0  0  0
   27.4810   14.7710   21.4090 O   0  0  0  0  0  0  0  0  0  0  0  0
   27.2600   12.2390   21.5630 O   0  0  0  0  0  0  0  0  0  0  0  0
   22.1400   14.2180   22.3010 H   0  0  0  0  0  0  0  0  0  0  0  0
   23.3420   14.4300   23.4920 H   0  0  0  0  0  0  0  0  0  0  0  0
   23.3930    8.6720   21.9440 N   0  0  0  0  0  0  0  0  0  0  0  0
   22.6220    9.3150   22.8960 C   0  0  0  0  0  0  0  0  0  0  0  0
   22.6820   10.5080   23.1620 O   0  0  0  0  0  0  0  0  0  0  0  0
   23.3170    7.6910   21.9200 H   0  0  0  0  0  0  0  0  0  0  0  0
   21.6360    8.4570   23.5970 C   0  0  0  0  0  0  0  0  0  0  0  0
   21.0520    7.3920   22.9340 C   0  0  0  0  0  0  0  0  0  0  0  0
   20.1380    6.6260   23.6350 C   0  0  0  0  0  0  0  0  0  0  0  0
   19.8440    6.9370   24.9490 C   0  0  0  0  0  0  0  0  0  0  0  0
   18.9560    6.2280   25.6670 F   0  0  0  0  0  0  0  0  0  0  0  0
   20.4730    8.0200   25.5200 C   0  0  0  0  0  0  0  0  0  0  0  0
   21.3600    8.7850   24.8630 N   0  0  0  0  0  0  0  0  0  0  0  0
  8  9  1  0
  9 10  1  0
 10 11  1  0
 10 12  2  0
 12 13  1  0
 13 14  1  0
 13  1  1  0
  1  2  2  0
  2  3  1  0
  3 21  1  0
 21 22  1  0
 22 23  2  0
 22 25  1  0
 25 26  2  0
 26 27  1  0
 27 28  2  0
 28 29  1  0
 28 30  1  0
 30 31  2  0
  3  4  2  0
  4  5  1  0
  5  6  2  0
  6  7  1  0
 13 15  1  0
 15 16  1  0
 16 17  2  0
 16 18  2  0
 16  9  1  0
  6  1  1  0
 31 25  1  0
 11 19  1  0
 11 20  1  0
 21 24  1  0
M  END
> <meeko>
{"is_sidechain": false}

> <source_group>
BACE1-401 observed AD isoform

> <source_system>
BACE1_verubecestat_401

> <source_run>
alternate_401_seed1103_ex32

> <source_seed>
1103

> <vina_pose_rank>
10

> <vina_affinity_kcal_mol>
-8.3780000000000001

> <vina_rmsd_to_crystal_angstrom>
6.5625

> <minimizedAffinity>
-8.09362

> <CNNscore>
0.3042167425

> <CNNaffinity>
5.4084610939

> <CNN_VS>
1.6453443766

> <CNNaffinity_variance>
0.1211324334

$$$$
BACE1_verubecestat_401__alternate_401_seed1103_ex32__pose11


 31 33  0  0  0  0  0  0  0  0999 V2000
   18.4450    7.9310   23.1470 C   0  0  0  0  0  0  0  0  0  0  0  0
   19.3900    8.8970   23.4900 C   0  0  0  0  0  0  0  0  0  0  0  0
   19.0820    9.9780   24.2840 C   0  0  0  0  0  0  0  0  0  0  0  0
   17.7890   10.1560   24.7600 C   0  0  0  0  0  0  0  0  0  0  0  0
   16.8390    9.2050   24.4320 C   0  0  0  0  0  0  0  0  0  0  0  0
   17.1700    8.1090   23.6610 C   0  0  0  0  0  0  0  0  0  0  0  0
   16.2260    7.1750   23.3780 F   0  0  0  0  0  0  0  0  0  0  0  0
   22.1330    5.4760   24.7350 C   0  0  0  0  0  0  0  0  0  0  0  0
   21.0100    5.8000   23.8320 N   0  0  0  0  0  0  0  0  0  0  0  0
   21.1860    6.4210   22.5760 C   0  0  0  0  0  0  0  0  0  0  0  0
   22.4960    6.5580   22.2030 N   0  0  0  0  0  0  0  0  0  0  0  0
   20.2060    6.8100   21.8200 N   0  0  0  0  0  0  0  0  0  0  0  0
   18.8170    6.7460   22.2690 C   0  0  0  0  0  0  0  0  0  0  0  0
   18.0280    6.8340   20.9600 C   0  0  0  0  0  0  0  0  0  0  0  0
   18.5280    5.3880   22.8710 C   0  0  0  0  0  0  0  0  0  0  0  0
   19.5050    5.1280   24.3290 S   0  0  0  0  0  0  0  0  0  0  0  0
   19.6940    3.6930   24.4510 O   0  0  0  0  0  0  0  0  0  0  0  0
   19.0890    5.9770   25.4020 O   0  0  0  0  0  0  0  0  0  0  0  0
   22.7210    6.9800   21.3420 H   0  0  0  0  0  0  0  0  0  0  0  0
   23.2130    6.2340   22.7950 H   0  0  0  0  0  0  0  0  0  0  0  0
   20.1230   10.8770   24.5520 N   0  0  0  0  0  0  0  0  0  0  0  0
   20.8810   10.9920   25.7030 C   0  0  0  0  0  0  0  0  0  0  0  0
   20.6700   10.3910   26.7490 O   0  0  0  0  0  0  0  0  0  0  0  0
   20.3430   11.5070   23.8280 H   0  0  0  0  0  0  0  0  0  0  0  0
   22.0500   11.8990   25.6040 C   0  0  0  0  0  0  0  0  0  0  0  0
   22.8750   11.8440   24.4940 C   0  0  0  0  0  0  0  0  0  0  0  0
   23.9520   12.7110   24.4540 C   0  0  0  0  0  0  0  0  0  0  0  0
   24.1670   13.5900   25.4980 C   0  0  0  0  0  0  0  0  0  0  0  0
   25.2040   14.4450   25.5070 F   0  0  0  0  0  0  0  0  0  0  0  0
   23.2940   13.5660   26.5620 C   0  0  0  0  0  0  0  0  0  0  0  0
   22.2430   12.7320   26.6310 N   0  0  0  0  0  0  0  0  0  0  0  0
  8  9  1  0
  9 10  1  0
 10 11  1  0
 10 12  2  0
 12 13  1  0
 13 14  1  0
 13  1  1  0
  1  2  2  0
  2  3  1  0
  3 21  1  0
 21 22  1  0
 22 23  2  0
 22 25  1  0
 25 26  2  0
 26 27  1  0
 27 28  2  0
 28 29  1  0
 28 30  1  0
 30 31  2  0
  3  4  2  0
  4  5  1  0
  5  6  2  0
  6  7  1  0
 13 15  1  0
 15 16  1  0
 16 17  2  0
 16 18  2  0
 16  9  1  0
  6  1  1  0
 31 25  1  0
 11 19  1  0
 11 20  1  0
 21 24  1  0
M  END
> <meeko>
{"is_sidechain": false}

> <source_group>
BACE1-401 observed AD isoform

> <source_system>
BACE1_verubecestat_401

> <source_run>
alternate_401_seed1103_ex32

> <source_seed>
1103

> <vina_pose_rank>
11

> <vina_affinity_kcal_mol>
-8.3680000000000003

> <vina_rmsd_to_crystal_angstrom>
7.3127000000000004

> <minimizedAffinity>
-7.62822

> <CNNscore>
0.0267078690

> <CNNaffinity>
4.3820681572

> <CNN_VS>
0.1170357019

> <CNNaffinity_variance>
0.5951287150

$$$$
BACE1_verubecestat_401__alternate_401_seed1103_ex32__pose12


 31 33  0  0  0  0  0  0  0  0999 V2000
   25.3420   10.9360   19.6960 C   0  0  0  0  0  0  0  0  0  0  0  0
   25.9750    9.8560   20.3080 C   0  0  0  0  0  0  0  0  0  0  0  0
   26.1250    8.6390   19.6830 C   0  0  0  0  0  0  0  0  0  0  0  0
   25.6210    8.4380   18.4040 C   0  0  0  0  0  0  0  0  0  0  0  0
   24.9920    9.5010   17.7790 C   0  0  0  0  0  0  0  0  0  0  0  0
   24.8770   10.7260   18.4070 C   0  0  0  0  0  0  0  0  0  0  0  0
   24.2810   11.7600   17.7600 F   0  0  0  0  0  0  0  0  0  0  0  0
   29.4390   12.8730   20.9660 C   0  0  0  0  0  0  0  0  0  0  0  0
   27.9730   12.7870   20.8110 N   0  0  0  0  0  0  0  0  0  0  0  0
   27.1050   12.4440   21.8720 C   0  0  0  0  0  0  0  0  0  0  0  0
   27.7260   12.3480   23.0880 N   0  0  0  0  0  0  0  0  0  0  0  0
   25.8290   12.2580   21.7290 N   0  0  0  0  0  0  0  0  0  0  0  0
   25.1940   12.2700   20.4120 C   0  0  0  0  0  0  0  0  0  0  0  0
   23.7160   12.4900   20.7460 C   0  0  0  0  0  0  0  0  0  0  0  0
   25.6560   13.4750   19.6230 C   0  0  0  0  0  0  0  0  0  0  0  0
   27.3990   13.3850   19.3020 S   0  0  0  0  0  0  0  0  0  0  0  0
   27.8680   14.7530   19.1760 O   0  0  0  0  0  0  0  0  0  0  0  0
   27.7120   12.3390   18.3790 O   0  0  0  0  0  0  0  0  0  0  0  0
   27.2040   12.1140   23.8900 H   0  0  0  0  0  0  0  0  0  0  0  0
   28.6940   12.5140   23.1620 H   0  0  0  0  0  0  0  0  0  0  0  0
   26.7790    7.6360   20.4100 N   0  0  0  0  0  0  0  0  0  0  0  0
   26.2270    6.5270   21.0280 C   0  0  0  0  0  0  0  0  0  0  0  0
   25.0280    6.3110   21.1460 O   0  0  0  0  0  0  0  0  0  0  0  0
   27.7550    7.7320   20.4930 H   0  0  0  0  0  0  0  0  0  0  0  0
   27.2040    5.5360   21.5400 C   0  0  0  0  0  0  0  0  0  0  0  0
   26.7560    4.3780   22.1530 C   0  0  0  0  0  0  0  0  0  0  0  0
   27.7110    3.4890   22.6140 C   0  0  0  0  0  0  0  0  0  0  0  0
   29.0530    3.7740   22.4490 C   0  0  0  0  0  0  0  0  0  0  0  0
   30.0160    2.9450   22.8880 F   0  0  0  0  0  0  0  0  0  0  0  0
   29.3990    4.9540   21.8310 C   0  0  0  0  0  0  0  0  0  0  0  0
   28.4960    5.8390   21.3790 N   0  0  0  0  0  0  0  0  0  0  0  0
  8  9  1  0
  9 10  1  0
 10 11  1  0
 10 12  2  0
 12 13  1  0
 13 14  1  0
 13  1  1  0
  1  2  2  0
  2  3  1  0
  3 21  1  0
 21 22  1  0
 22 23  2  0
 22 25  1  0
 25 26  2  0
 26 27  1  0
 27 28  2  0
 28 29  1  0
 28 30  1  0
 30 31  2  0
  3  4  2  0
  4  5  1  0
  5  6  2  0
  6  7  1  0
 13 15  1  0
 15 16  1  0
 16 17  2  0
 16 18  2  0
 16  9  1  0
  6  1  1  0
 31 25  1  0
 11 19  1  0
 11 20  1  0
 21 24  1  0
M  END
> <meeko>
{"is_sidechain": false}

> <source_group>
BACE1-401 observed AD isoform

> <source_system>
BACE1_verubecestat_401

> <source_run>
alternate_401_seed1103_ex32

> <source_seed>
1103

> <vina_pose_rank>
12

> <vina_affinity_kcal_mol>
-8.3049999999999997

> <vina_rmsd_to_crystal_angstrom>
5.2793000000000001

> <minimizedAffinity>
-7.60680

> <CNNscore>
0.1431544870

> <CNNaffinity>
4.8607392311

> <CNN_VS>
0.6958366036

> <CNNaffinity_variance>
0.4521366060

$$$$
BACE1_verubecestat_401__alternate_401_seed1103_ex32__pose13


 31 33  0  0  0  0  0  0  0  0999 V2000
   19.3330    8.1030   23.5820 C   0  0  0  0  0  0  0  0  0  0  0  0
   20.4150    8.9710   23.7230 C   0  0  0  0  0  0  0  0  0  0  0  0
   20.3750   10.0680   24.5540 C   0  0  0  0  0  0  0  0  0  0  0  0
   19.2260   10.3620   25.2760 C   0  0  0  0  0  0  0  0  0  0  0  0
   18.1430    9.5090   25.1520 C   0  0  0  0  0  0  0  0  0  0  0  0
   18.2080    8.3950   24.3380 C   0  0  0  0  0  0  0  0  0  0  0  0
   17.1420    7.5580   24.2560 F   0  0  0  0  0  0  0  0  0  0  0  0
   22.6800    5.0120   24.7620 C   0  0  0  0  0  0  0  0  0  0  0  0
   21.5470    5.5480   23.9810 N   0  0  0  0  0  0  0  0  0  0  0  0
   21.7050    6.1660   22.7210 C   0  0  0  0  0  0  0  0  0  0  0  0
   22.9770    6.0890   22.2200 N   0  0  0  0  0  0  0  0  0  0  0  0
   20.7380    6.7380   22.0720 N   0  0  0  0  0  0  0  0  0  0  0  0
   19.4090    6.8980   22.6570 C   0  0  0  0  0  0  0  0  0  0  0  0
   18.5240    7.1570   21.4350 C   0  0  0  0  0  0  0  0  0  0  0  0
   18.9500    5.5920   23.2680 C   0  0  0  0  0  0  0  0  0  0  0  0
   20.0040    5.1270   24.6180 S   0  0  0  0  0  0  0  0  0  0  0  0
   19.9540    3.6780   24.7020 O   0  0  0  0  0  0  0  0  0  0  0  0
   19.8460    6.0030   25.7370 O   0  0  0  0  0  0  0  0  0  0  0  0
   23.1870    6.4920   21.3460 H   0  0  0  0  0  0  0  0  0  0  0  0
   23.6820    5.6310   22.7320 H   0  0  0  0  0  0  0  0  0  0  0  0
   21.5290   10.8610   24.6020 N   0  0  0  0  0  0  0  0  0  0  0  0
   21.6380   12.2280   24.4190 C   0  0  0  0  0  0  0  0  0  0  0  0
   20.7320   12.9630   24.0500 O   0  0  0  0  0  0  0  0  0  0  0  0
   22.3700   10.3840   24.7910 H   0  0  0  0  0  0  0  0  0  0  0  0
   22.9650   12.8060   24.7420 C   0  0  0  0  0  0  0  0  0  0  0  0
   24.0120   12.6760   23.8460 C   0  0  0  0  0  0  0  0  0  0  0  0
   25.2280   13.2330   24.1990 C   0  0  0  0  0  0  0  0  0  0  0  0
   25.3590   13.8920   25.4060 C   0  0  0  0  0  0  0  0  0  0  0  0
   26.5220   14.4400   25.7960 F   0  0  0  0  0  0  0  0  0  0  0  0
   24.2610   13.9640   26.2330 C   0  0  0  0  0  0  0  0  0  0  0  0
   23.0700   13.4280   25.9210 N   0  0  0  0  0  0  0  0  0  0  0  0
  8  9  1  0
  9 10  1  0
 10 11  1  0
 10 12  2  0
 12 13  1  0
 13 14  1  0
 13  1  1  0
  1  2  2  0
  2  3  1  0
  3 21  1  0
 21 22  1  0
 22 23  2  0
 22 25  1  0
 25 26  2  0
 26 27  1  0
 27 28  2  0
 28 29  1  0
 28 30  1  0
 30 31  2  0
  3  4  2  0
  4  5  1  0
  5  6  2  0
  6  7  1  0
 13 15  1  0
 15 16  1  0
 16 17  2  0
 16 18  2  0
 16  9  1  0
  6  1  1  0
 31 25  1  0
 11 19  1  0
 11 20  1  0
 21 24  1  0
M  END
> <meeko>
{"is_sidechain": false}

> <source_group>
BACE1-401 observed AD isoform

> <source_system>
BACE1_verubecestat_401

> <source_run>
alternate_401_seed1103_ex32

> <source_seed>
1103

> <vina_pose_rank>
13

> <vina_affinity_kcal_mol>
-8.2349999999999994

> <vina_rmsd_to_crystal_angstrom>
6.7699999999999996

> <minimizedAffinity>
-7.70641

> <CNNscore>
0.0346519947

> <CNNaffinity>
4.4053921700

> <CNN_VS>
0.1526556313

> <CNNaffinity_variance>
0.5870404840

$$$$
BACE1_verubecestat_401__alternate_401_seed1103_ex32__pose14


 31 33  0  0  0  0  0  0  0  0999 V2000
   18.7160   10.7510   25.0200 C   0  0  0  0  0  0  0  0  0  0  0  0
   19.5360    9.6400   24.8290 C   0  0  0  0  0  0  0  0  0  0  0  0
   19.0540    8.4430   24.3500 C   0  0  0  0  0  0  0  0  0  0  0  0
   17.7040    8.2950   24.0580 C   0  0  0  0  0  0  0  0  0  0  0  0
   16.8760    9.3880   24.2380 C   0  0  0  0  0  0  0  0  0  0  0  0
   17.3790   10.5930   24.6890 C   0  0  0  0  0  0  0  0  0  0  0  0
   16.5500   11.6590   24.8290 F   0  0  0  0  0  0  0  0  0  0  0  0
   18.5430   11.1440   29.7070 C   0  0  0  0  0  0  0  0  0  0  0  0
   18.8650   11.5540   28.3260 N   0  0  0  0  0  0  0  0  0  0  0  0
   18.1020   12.5000   27.6060 C   0  0  0  0  0  0  0  0  0  0  0  0
   17.1320   13.1140   28.3510 N   0  0  0  0  0  0  0  0  0  0  0  0
   18.3050   12.7910   26.3580 N   0  0  0  0  0  0  0  0  0  0  0  0
   19.2790   12.0620   25.5470 C   0  0  0  0  0  0  0  0  0  0  0  0
   19.5190   13.0070   24.3670 C   0  0  0  0  0  0  0  0  0  0  0  0
   20.5890   11.9420   26.2930 C   0  0  0  0  0  0  0  0  0  0  0  0
   20.3860   10.9730   27.7660 S   0  0  0  0  0  0  0  0  0  0  0  0
   21.3930   11.4320   28.7060 O   0  0  0  0  0  0  0  0  0  0  0  0
   20.1370    9.5990   27.4630 O   0  0  0  0  0  0  0  0  0  0  0  0
   16.5480   13.7900   27.9370 H   0  0  0  0  0  0  0  0  0  0  0  0
   17.0190   12.8810   29.3010 H   0  0  0  0  0  0  0  0  0  0  0  0
   19.9840    7.4050   24.2070 N   0  0  0  0  0  0  0  0  0  0  0  0
   20.3500    6.4480   25.1370 C   0  0  0  0  0  0  0  0  0  0  0  0
   20.0010    6.4360   26.3100 O   0  0  0  0  0  0  0  0  0  0  0  0
   20.4330    7.3490   23.3330 H   0  0  0  0  0  0  0  0  0  0  0  0
   21.2040    5.3530   24.6160 C   0  0  0  0  0  0  0  0  0  0  0  0
   21.8130    5.4810   23.3790 C   0  0  0  0  0  0  0  0  0  0  0  0
   22.5980    4.4280   22.9420 C   0  0  0  0  0  0  0  0  0  0  0  0
   22.7500    3.3080   23.7350 C   0  0  0  0  0  0  0  0  0  0  0  0
   23.4940    2.2570   23.3480 F   0  0  0  0  0  0  0  0  0  0  0  0
   22.0990    3.2710   24.9470 C   0  0  0  0  0  0  0  0  0  0  0  0
   21.3270    4.2740   25.3960 N   0  0  0  0  0  0  0  0  0  0  0  0
  8  9  1  0
  9 10  1  0
 10 11  1  0
 10 12  2  0
 12 13  1  0
 13 14  1  0
 13  1  1  0
  1  2  2  0
  2  3  1  0
  3 21  1  0
 21 22  1  0
 22 23  2  0
 22 25  1  0
 25 26  2  0
 26 27  1  0
 27 28  2  0
 28 29  1  0
 28 30  1  0
 30 31  2  0
  3  4  2  0
  4  5  1  0
  5  6  2  0
  6  7  1  0
 13 15  1  0
 15 16  1  0
 16 17  2  0
 16 18  2  0
 16  9  1  0
  6  1  1  0
 31 25  1  0
 11 19  1  0
 11 20  1  0
 21 24  1  0
M  END
> <meeko>
{"is_sidechain": false}

> <source_group>
BACE1-401 observed AD isoform

> <source_system>
BACE1_verubecestat_401

> <source_run>
alternate_401_seed1103_ex32

> <source_seed>
1103

> <vina_pose_rank>
14

> <vina_affinity_kcal_mol>
-8.2140000000000004

> <vina_rmsd_to_crystal_angstrom>
7.8296999999999999

> <minimizedAffinity>
-8.12942

> <CNNscore>
0.0628180653

> <CNNaffinity>
4.3064785004

> <CNN_VS>
0.2705246508

> <CNNaffinity_variance>
0.7672708631

$$$$
BACE1_verubecestat_401__alternate_401_seed1103_ex32__pose15


 31 33  0  0  0  0  0  0  0  0999 V2000
   25.4620   12.3810   19.3200 C   0  0  0  0  0  0  0  0  0  0  0  0
   26.1370   11.2050   18.9960 C   0  0  0  0  0  0  0  0  0  0  0  0
   25.4810   10.0130   18.7900 C   0  0  0  0  0  0  0  0  0  0  0  0
   24.1000    9.9370   18.9230 C   0  0  0  0  0  0  0  0  0  0  0  0
   23.4130   11.0960   19.2400 C   0  0  0  0  0  0  0  0  0  0  0  0
   24.0820   12.2920   19.4130 C   0  0  0  0  0  0  0  0  0  0  0  0
   23.3810   13.4210   19.6950 F   0  0  0  0  0  0  0  0  0  0  0  0
   26.4460   13.2730   23.8350 C   0  0  0  0  0  0  0  0  0  0  0  0
   26.4510   13.5070   22.3770 N   0  0  0  0  0  0  0  0  0  0  0  0
   25.5970   14.4370   21.7430 C   0  0  0  0  0  0  0  0  0  0  0  0
   24.8750   15.2100   22.6130 N   0  0  0  0  0  0  0  0  0  0  0  0
   25.5120   14.5780   20.4560 N   0  0  0  0  0  0  0  0  0  0  0  0
   26.2150   13.6840   19.5380 C   0  0  0  0  0  0  0  0  0  0  0  0
   26.2230   14.4760   18.2270 C   0  0  0  0  0  0  0  0  0  0  0  0
   27.6570   13.5270   19.9690 C   0  0  0  0  0  0  0  0  0  0  0  0
   27.7540   12.7380   21.5560 S   0  0  0  0  0  0  0  0  0  0  0  0
   28.9840   13.2010   22.1730 O   0  0  0  0  0  0  0  0  0  0  0  0
   27.3550   11.3670   21.4890 O   0  0  0  0  0  0  0  0  0  0  0  0
   24.2510   15.8880   22.2660 H   0  0  0  0  0  0  0  0  0  0  0  0
   24.9790   15.0880   23.5840 H   0  0  0  0  0  0  0  0  0  0  0  0
   26.2780    8.9050   18.4730 N   0  0  0  0  0  0  0  0  0  0  0  0
   26.4380    7.7320   19.1890 C   0  0  0  0  0  0  0  0  0  0  0  0
   25.9930    7.5240   20.3100 O   0  0  0  0  0  0  0  0  0  0  0  0
   26.7880    8.9690   17.6330 H   0  0  0  0  0  0  0  0  0  0  0  0
   27.1850    6.6590   18.4880 C   0  0  0  0  0  0  0  0  0  0  0  0
   26.7270    6.1790   17.2730 C   0  0  0  0  0  0  0  0  0  0  0  0
   27.4620    5.1770   16.6630 C   0  0  0  0  0  0  0  0  0  0  0  0
   28.6070    4.6980   17.2700 C   0  0  0  0  0  0  0  0  0  0  0  0
   29.3470    3.7190   16.7210 F   0  0  0  0  0  0  0  0  0  0  0  0
   28.9780    5.2350   18.4810 C   0  0  0  0  0  0  0  0  0  0  0  0
   28.2830    6.2040   19.1000 N   0  0  0  0  0  0  0  0  0  0  0  0
  8  9  1  0
  9 10  1  0
 10 11  1  0
 10 12  2  0
 12 13  1  0
 13 14  1  0
 13  1  1  0
  1  2  2  0
  2  3  1  0
  3 21  1  0
 21 22  1  0
 22 23  2  0
 22 25  1  0
 25 26  2  0
 26 27  1  0
 27 28  2  0
 28 29  1  0
 28 30  1  0
 30 31  2  0
  3  4  2  0
  4  5  1  0
  5  6  2  0
  6  7  1  0
 13 15  1  0
 15 16  1  0
 16 17  2  0
 16 18  2  0
 16  9  1  0
  6  1  1  0
 31 25  1  0
 11 19  1  0
 11 20  1  0
 21 24  1  0
M  END
> <meeko>
{"is_sidechain": false}

> <source_group>
BACE1-401 observed AD isoform

> <source_system>
BACE1_verubecestat_401

> <source_run>
alternate_401_seed1103_ex32

> <source_seed>
1103

> <vina_pose_rank>
15

> <vina_affinity_kcal_mol>
-8.2119999999999997

> <vina_rmsd_to_crystal_angstrom>
5.6025999999999998

> <minimizedAffinity>
-8.19208

> <CNNscore>
0.3179278374

> <CNNaffinity>
5.5529656410

> <CNN_VS>
1.7654423714

> <CNNaffinity_variance>
0.0489029288

$$$$
BACE1_verubecestat_401__alternate_401_seed1103_ex32__pose16


 31 33  0  0  0  0  0  0  0  0999 V2000
   20.7820    6.6490   23.9170 C   0  0  0  0  0  0  0  0  0  0  0  0
   21.3650    7.7350   23.2650 C   0  0  0  0  0  0  0  0  0  0  0  0
   22.4500    7.5970   22.4300 C   0  0  0  0  0  0  0  0  0  0  0  0
   23.0240    6.3490   22.2230 C   0  0  0  0  0  0  0  0  0  0  0  0
   22.4560    5.2590   22.8590 C   0  0  0  0  0  0  0  0  0  0  0  0
   21.3480    5.4080   23.6690 C   0  0  0  0  0  0  0  0  0  0  0  0
   20.7920    4.3180   24.2580 F   0  0  0  0  0  0  0  0  0  0  0  0
   17.0400    8.5410   21.7790 C   0  0  0  0  0  0  0  0  0  0  0  0
   17.8050    7.9470   22.8930 N   0  0  0  0  0  0  0  0  0  0  0  0
   18.3620    8.7140   23.9400 C   0  0  0  0  0  0  0  0  0  0  0  0
   18.0020   10.0350   23.9130 N   0  0  0  0  0  0  0  0  0  0  0  0
   19.1270    8.2230   24.8660 N   0  0  0  0  0  0  0  0  0  0  0  0
   19.5810    6.8340   24.8310 C   0  0  0  0  0  0  0  0  0  0  0  0
   20.0170    6.5790   26.2770 C   0  0  0  0  0  0  0  0  0  0  0  0
   18.4140    5.9130   24.5510 C   0  0  0  0  0  0  0  0  0  0  0  0
   17.7410    6.2270   22.9390 S   0  0  0  0  0  0  0  0  0  0  0  0
   16.3400    5.8500   22.9950 O   0  0  0  0  0  0  0  0  0  0  0  0
   18.6410    5.8230   21.9040 O   0  0  0  0  0  0  0  0  0  0  0  0
   18.3400   10.6510   24.6030 H   0  0  0  0  0  0  0  0  0  0  0  0
   17.4050   10.3680   23.2050 H   0  0  0  0  0  0  0  0  0  0  0  0
   22.9410    8.7680   21.8390 N   0  0  0  0  0  0  0  0  0  0  0  0
   24.1390    8.9550   21.1730 C   0  0  0  0  0  0  0  0  0  0  0  0
   25.0420    8.1320   21.1020 O   0  0  0  0  0  0  0  0  0  0  0  0
   22.3590    9.5600   21.9080 H   0  0  0  0  0  0  0  0  0  0  0  0
   24.2790   10.2560   20.4750 C   0  0  0  0  0  0  0  0  0  0  0  0
   23.3660   10.6200   19.5000 C   0  0  0  0  0  0  0  0  0  0  0  0
   23.5460   11.8440   18.8800 C   0  0  0  0  0  0  0  0  0  0  0  0
   24.6050   12.6510   19.2470 C   0  0  0  0  0  0  0  0  0  0  0  0
   24.8250   13.8440   18.6670 F   0  0  0  0  0  0  0  0  0  0  0  0
   25.4640   12.2000   20.2240 C   0  0  0  0  0  0  0  0  0  0  0  0
   25.3180   11.0150   20.8390 N   0  0  0  0  0  0  0  0  0  0  0  0
  8  9  1  0
  9 10  1  0
 10 11  1  0
 10 12  2  0
 12 13  1  0
 13 14  1  0
 13  1  1  0
  1  2  2  0
  2  3  1  0
  3 21  1  0
 21 22  1  0
 22 23  2  0
 22 25  1  0
 25 26  2  0
 26 27  1  0
 27 28  2  0
 28 29  1  0
 28 30  1  0
 30 31  2  0
  3  4  2  0
  4  5  1  0
  5  6  2  0
  6  7  1  0
 13 15  1  0
 15 16  1  0
 16 17  2  0
 16 18  2  0
 16  9  1  0
  6  1  1  0
 31 25  1  0
 11 19  1  0
 11 20  1  0
 21 24  1  0
M  END
> <meeko>
{"is_sidechain": false}

> <source_group>
BACE1-401 observed AD isoform

> <source_system>
BACE1_verubecestat_401

> <source_run>
alternate_401_seed1103_ex32

> <source_seed>
1103

> <vina_pose_rank>
16

> <vina_affinity_kcal_mol>
-8.1790000000000003

> <vina_rmsd_to_crystal_angstrom>
6.3189000000000002

> <minimizedAffinity>
-7.85489

> <CNNscore>
0.3073518872

> <CNNaffinity>
5.1039738655

> <CNN_VS>
1.5687160492

> <CNNaffinity_variance>
0.3987615108

$$$$
BACE1_verubecestat_401__alternate_401_seed1103_ex32__pose17


 31 33  0  0  0  0  0  0  0  0999 V2000
   25.6140   13.2240   19.9060 C   0  0  0  0  0  0  0  0  0  0  0  0
   24.8580   12.3540   20.6910 C   0  0  0  0  0  0  0  0  0  0  0  0
   23.7820   11.6580   20.1900 C   0  0  0  0  0  0  0  0  0  0  0  0
   23.3940   11.8190   18.8660 C   0  0  0  0  0  0  0  0  0  0  0  0
   24.1350   12.6760   18.0710 C   0  0  0  0  0  0  0  0  0  0  0  0
   25.2320   13.3430   18.5790 C   0  0  0  0  0  0  0  0  0  0  0  0
   25.9610   14.1560   17.7700 F   0  0  0  0  0  0  0  0  0  0  0  0
   28.6510   10.4800   22.2310 C   0  0  0  0  0  0  0  0  0  0  0  0
   28.1260   11.7360   21.6590 N   0  0  0  0  0  0  0  0  0  0  0  0
   27.4810   12.7250   22.4340 C   0  0  0  0  0  0  0  0  0  0  0  0
   27.5200   12.4880   23.7820 N   0  0  0  0  0  0  0  0  0  0  0  0
   26.9190   13.7820   21.9330 N   0  0  0  0  0  0  0  0  0  0  0  0
   26.8000   13.9770   20.4890 C   0  0  0  0  0  0  0  0  0  0  0  0
   26.5390   15.4810   20.3660 C   0  0  0  0  0  0  0  0  0  0  0  0
   28.1270   13.7010   19.8170 C   0  0  0  0  0  0  0  0  0  0  0  0
   28.5930   12.0010   20.0230 S   0  0  0  0  0  0  0  0  0  0  0  0
   30.0440   11.9610   19.9780 O   0  0  0  0  0  0  0  0  0  0  0  0
   27.7420   11.1260   19.2780 O   0  0  0  0  0  0  0  0  0  0  0  0
   27.0970   13.1210   24.4050 H   0  0  0  0  0  0  0  0  0  0  0  0
   27.9710   11.6840   24.1270 H   0  0  0  0  0  0  0  0  0  0  0  0
   23.1050   10.8190   21.0850 N   0  0  0  0  0  0  0  0  0  0  0  0
   23.4480    9.5400   21.4870 C   0  0  0  0  0  0  0  0  0  0  0  0
   24.3570    8.8720   21.0120 O   0  0  0  0  0  0  0  0  0  0  0  0
   22.2810   11.1860   21.4780 H   0  0  0  0  0  0  0  0  0  0  0  0
   22.6460    8.9920   22.6080 C   0  0  0  0  0  0  0  0  0  0  0  0
   22.2930    7.6540   22.6150 C   0  0  0  0  0  0  0  0  0  0  0  0
   21.5430    7.1960   23.6840 C   0  0  0  0  0  0  0  0  0  0  0  0
   21.1780    8.0680   24.6920 C   0  0  0  0  0  0  0  0  0  0  0  0
   20.4410    7.6720   25.7440 F   0  0  0  0  0  0  0  0  0  0  0  0
   21.5710    9.3840   24.5920 C   0  0  0  0  0  0  0  0  0  0  0  0
   22.2950    9.8580   23.5640 N   0  0  0  0  0  0  0  0  0  0  0  0
  8  9  1  0
  9 10  1  0
 10 11  1  0
 10 12  2  0
 12 13  1  0
 13 14  1  0
 13  1  1  0
  1  2  2  0
  2  3  1  0
  3 21  1  0
 21 22  1  0
 22 23  2  0
 22 25  1  0
 25 26  2  0
 26 27  1  0
 27 28  2  0
 28 29  1  0
 28 30  1  0
 30 31  2  0
  3  4  2  0
  4  5  1  0
  5  6  2  0
  6  7  1  0
 13 15  1  0
 15 16  1  0
 16 17  2  0
 16 18  2  0
 16  9  1  0
  6  1  1  0
 31 25  1  0
 11 19  1  0
 11 20  1  0
 21 24  1  0
M  END
> <meeko>
{"is_sidechain": false}

> <source_group>
BACE1-401 observed AD isoform

> <source_system>
BACE1_verubecestat_401

> <source_run>
alternate_401_seed1103_ex32

> <source_seed>
1103

> <vina_pose_rank>
17

> <vina_affinity_kcal_mol>
-8.1660000000000004

> <vina_rmsd_to_crystal_angstrom>
6.7221000000000002

> <minimizedAffinity>
-7.47029

> <CNNscore>
0.1680600941

> <CNNaffinity>
5.2456874847

> <CNN_VS>
0.8815907240

> <CNNaffinity_variance>
0.1736711264

$$$$
BACE1_verubecestat_401__alternate_401_seed1103_ex32__pose18


 31 33  0  0  0  0  0  0  0  0999 V2000
   21.2670   12.3960   26.4010 C   0  0  0  0  0  0  0  0  0  0  0  0
   21.6190   12.1670   25.0710 C   0  0  0  0  0  0  0  0  0  0  0  0
   22.7800   12.6600   24.5210 C   0  0  0  0  0  0  0  0  0  0  0  0
   23.6440   13.4360   25.2830 C   0  0  0  0  0  0  0  0  0  0  0  0
   23.3130   13.6710   26.6060 C   0  0  0  0  0  0  0  0  0  0  0  0
   22.1600   13.1430   27.1530 C   0  0  0  0  0  0  0  0  0  0  0  0
   21.8730   13.3640   28.4610 F   0  0  0  0  0  0  0  0  0  0  0  0
   17.7550   15.5230   26.6040 C   0  0  0  0  0  0  0  0  0  0  0  0
   18.4050   14.2060   26.7560 N   0  0  0  0  0  0  0  0  0  0  0  0
   18.8480   13.7040   28.0000 C   0  0  0  0  0  0  0  0  0  0  0  0
   18.4860   14.4770   29.0710 N   0  0  0  0  0  0  0  0  0  0  0  0
   19.5160   12.6000   28.1360 N   0  0  0  0  0  0  0  0  0  0  0  0
   19.9780   11.8340   26.9800 C   0  0  0  0  0  0  0  0  0  0  0  0
   20.2640   10.4530   27.5760 C   0  0  0  0  0  0  0  0  0  0  0  0
   18.8500   11.6630   25.9860 C   0  0  0  0  0  0  0  0  0  0  0  0
   18.3440   13.2350   25.3350 S   0  0  0  0  0  0  0  0  0  0  0  0
   16.9460   13.0990   24.9660 O   0  0  0  0  0  0  0  0  0  0  0  0
   19.3470   13.8030   24.4890 O   0  0  0  0  0  0  0  0  0  0  0  0
   18.7490   14.2090   29.9810 H   0  0  0  0  0  0  0  0  0  0  0  0
   17.9630   15.2990   28.9310 H   0  0  0  0  0  0  0  0  0  0  0  0
   23.0140   12.3590   23.1730 N   0  0  0  0  0  0  0  0  0  0  0  0
   23.3820   13.2200   22.1540 C   0  0  0  0  0  0  0  0  0  0  0  0
   23.4390   14.4390   22.2480 O   0  0  0  0  0  0  0  0  0  0  0  0
   22.9020   11.4150   22.9190 H   0  0  0  0  0  0  0  0  0  0  0  0
   23.7600   12.5660   20.8780 C   0  0  0  0  0  0  0  0  0  0  0  0
   23.4110   11.2460   20.6480 C   0  0  0  0  0  0  0  0  0  0  0  0
   23.7910   10.6850   19.4420 C   0  0  0  0  0  0  0  0  0  0  0  0
   24.4900   11.4420   18.5210 C   0  0  0  0  0  0  0  0  0  0  0  0
   24.8880   10.9380   17.3410 F   0  0  0  0  0  0  0  0  0  0  0  0
   24.7960   12.7450   18.8440 C   0  0  0  0  0  0  0  0  0  0  0  0
   24.4460   13.3150   20.0080 N   0  0  0  0  0  0  0  0  0  0  0  0
  8  9  1  0
  9 10  1  0
 10 11  1  0
 10 12  2  0
 12 13  1  0
 13 14  1  0
 13  1  1  0
  1  2  2  0
  2  3  1  0
  3 21  1  0
 21 22  1  0
 22 23  2  0
 22 25  1  0
 25 26  2  0
 26 27  1  0
 27 28  2  0
 28 29  1  0
 28 30  1  0
 30 31  2  0
  3  4  2  0
  4  5  1  0
  5  6  2  0
  6  7  1  0
 13 15  1  0
 15 16  1  0
 16 17  2  0
 16 18  2  0
 16  9  1  0
  6  1  1  0
 31 25  1  0
 11 19  1  0
 11 20  1  0
 21 24  1  0
M  END
> <meeko>
{"is_sidechain": false}

> <source_group>
BACE1-401 observed AD isoform

> <source_system>
BACE1_verubecestat_401

> <source_run>
alternate_401_seed1103_ex32

> <source_seed>
1103

> <vina_pose_rank>
18

> <vina_affinity_kcal_mol>
-8.1440000000000001

> <vina_rmsd_to_crystal_angstrom>
6.5941000000000001

> <minimizedAffinity>
-8.16780

> <CNNscore>
0.5545903444

> <CNNaffinity>
5.3814392090

> <CNN_VS>
2.9844942093

> <CNNaffinity_variance>
0.3830807209

$$$$
BACE1_verubecestat_401__alternate_401_seed1103_ex32__pose19


 31 33  0  0  0  0  0  0  0  0999 V2000
   18.7210    6.8230   23.7820 C   0  0  0  0  0  0  0  0  0  0  0  0
   18.5220    6.2280   22.5370 C   0  0  0  0  0  0  0  0  0  0  0  0
   17.4550    6.5490   21.7290 C   0  0  0  0  0  0  0  0  0  0  0  0
   16.5120    7.4800   22.1470 C   0  0  0  0  0  0  0  0  0  0  0  0
   16.6950    8.0830   23.3790 C   0  0  0  0  0  0  0  0  0  0  0  0
   17.7870    7.7740   24.1650 C   0  0  0  0  0  0  0  0  0  0  0  0
   17.9590    8.4010   25.3560 F   0  0  0  0  0  0  0  0  0  0  0  0
   22.8370    8.4240   22.1560 C   0  0  0  0  0  0  0  0  0  0  0  0
   21.9270    7.7380   23.0950 N   0  0  0  0  0  0  0  0  0  0  0  0
   21.8010    6.3330   23.1580 C   0  0  0  0  0  0  0  0  0  0  0  0
   22.7040    5.6590   22.3800 N   0  0  0  0  0  0  0  0  0  0  0  0
   20.9310    5.7190   23.8990 N   0  0  0  0  0  0  0  0  0  0  0  0
   19.9110    6.4480   24.6510 C   0  0  0  0  0  0  0  0  0  0  0  0
   19.4580    5.4240   25.6960 C   0  0  0  0  0  0  0  0  0  0  0  0
   20.5440    7.5980   25.4020 C   0  0  0  0  0  0  0  0  0  0  0  0
   21.2300    8.7830   24.2730 S   0  0  0  0  0  0  0  0  0  0  0  0
   22.3240    9.4350   24.9710 O   0  0  0  0  0  0  0  0  0  0  0  0
   20.2090    9.4780   23.5520 O   0  0  0  0  0  0  0  0  0  0  0  0
   22.6960    4.6750   22.3570 H   0  0  0  0  0  0  0  0  0  0  0  0
   23.3620    6.1580   21.8440 H   0  0  0  0  0  0  0  0  0  0  0  0
   17.3710    5.8760   20.5030 N   0  0  0  0  0  0  0  0  0  0  0  0
   16.6420    4.7410   20.1970 C   0  0  0  0  0  0  0  0  0  0  0  0
   16.0360    4.0530   21.0080 O   0  0  0  0  0  0  0  0  0  0  0  0
   17.8980    6.2600   19.7660 H   0  0  0  0  0  0  0  0  0  0  0  0
   16.5900    4.3910   18.7570 C   0  0  0  0  0  0  0  0  0  0  0  0
   15.4750    4.7200   18.0050 C   0  0  0  0  0  0  0  0  0  0  0  0
   15.4790    4.3670   16.6670 C   0  0  0  0  0  0  0  0  0  0  0  0
   16.5730    3.7160   16.1310 C   0  0  0  0  0  0  0  0  0  0  0  0
   16.6190    3.3460   14.8400 F   0  0  0  0  0  0  0  0  0  0  0  0
   17.6330    3.4270   16.9600 C   0  0  0  0  0  0  0  0  0  0  0  0
   17.6550    3.7510   18.2640 N   0  0  0  0  0  0  0  0  0  0  0  0
  8  9  1  0
  9 10  1  0
 10 11  1  0
 10 12  2  0
 12 13  1  0
 13 14  1  0
 13  1  1  0
  1  2  2  0
  2  3  1  0
  3 21  1  0
 21 22  1  0
 22 23  2  0
 22 25  1  0
 25 26  2  0
 26 27  1  0
 27 28  2  0
 28 29  1  0
 28 30  1  0
 30 31  2  0
  3  4  2  0
  4  5  1  0
  5  6  2  0
  6  7  1  0
 13 15  1  0
 15 16  1  0
 16 17  2  0
 16 18  2  0
 16  9  1  0
  6  1  1  0
 31 25  1  0
 11 19  1  0
 11 20  1  0
 21 24  1  0
M  END
> <meeko>
{"is_sidechain": false}

> <source_group>
BACE1-401 observed AD isoform

> <source_system>
BACE1_verubecestat_401

> <source_run>
alternate_401_seed1103_ex32

> <source_seed>
1103

> <vina_pose_rank>
19

> <vina_affinity_kcal_mol>
-8.1199999999999992

> <vina_rmsd_to_crystal_angstrom>
10.043699999999999

> <minimizedAffinity>
-7.68933

> <CNNscore>
0.1052472219

> <CNNaffinity>
5.0474190712

> <CNN_VS>
0.5312268138

> <CNNaffinity_variance>
0.4550578594

$$$$
BACE1_verubecestat_401__alternate_401_seed1103_ex32__pose20


 31 33  0  0  0  0  0  0  0  0999 V2000
   14.8950    4.0790   20.5830 C   0  0  0  0  0  0  0  0  0  0  0  0
   15.7030    4.8410   21.4240 C   0  0  0  0  0  0  0  0  0  0  0  0
   15.8840    4.5300   22.7530 C   0  0  0  0  0  0  0  0  0  0  0  0
   15.2360    3.4360   23.3130 C   0  0  0  0  0  0  0  0  0  0  0  0
   14.4320    2.6660   22.4920 C   0  0  0  0  0  0  0  0  0  0  0  0
   14.2860    2.9720   21.1530 C   0  0  0  0  0  0  0  0  0  0  0  0
   13.5140    2.1830   20.3620 F   0  0  0  0  0  0  0  0  0  0  0  0
   18.9430    4.4090   18.2050 C   0  0  0  0  0  0  0  0  0  0  0  0
   17.4790    4.4260   18.3930 N   0  0  0  0  0  0  0  0  0  0  0  0
   16.7290    5.6200   18.4900 C   0  0  0  0  0  0  0  0  0  0  0  0
   17.4550    6.7540   18.2420 N   0  0  0  0  0  0  0  0  0  0  0  0
   15.4610    5.6550   18.7630 N   0  0  0  0  0  0  0  0  0  0  0  0
   14.7180    4.4470   19.1180 C   0  0  0  0  0  0  0  0  0  0  0  0
   13.2620    4.8590   18.8840 C   0  0  0  0  0  0  0  0  0  0  0  0
   15.0280    3.3390   18.1360 C   0  0  0  0  0  0  0  0  0  0  0  0
   16.7400    2.8800   18.2290 S   0  0  0  0  0  0  0  0  0  0  0  0
   17.1030    2.3670   16.9200 O   0  0  0  0  0  0  0  0  0  0  0  0
   17.0440    2.2230   19.4620 O   0  0  0  0  0  0  0  0  0  0  0  0
   17.0200    7.6360   18.2850 H   0  0  0  0  0  0  0  0  0  0  0  0
   18.4120    6.6870   18.0200 H   0  0  0  0  0  0  0  0  0  0  0  0
   16.7200    5.3790   23.4890 N   0  0  0  0  0  0  0  0  0  0  0  0
   18.0220    5.1560   23.8990 C   0  0  0  0  0  0  0  0  0  0  0  0
   18.6240    4.0960   23.7870 O   0  0  0  0  0  0  0  0  0  0  0  0
   16.3310    6.2460   23.7470 H   0  0  0  0  0  0  0  0  0  0  0  0
   18.7130    6.3330   24.4800 C   0  0  0  0  0  0  0  0  0  0  0  0
   19.5430    6.1740   25.5770 C   0  0  0  0  0  0  0  0  0  0  0  0
   20.1610    7.3050   26.0800 C   0  0  0  0  0  0  0  0  0  0  0  0
   19.9400    8.5320   25.4850 C   0  0  0  0  0  0  0  0  0  0  0  0
   20.5100    9.6590   25.9440 F   0  0  0  0  0  0  0  0  0  0  0  0
   19.0920    8.5900   24.4020 C   0  0  0  0  0  0  0  0  0  0  0  0
   18.4740    7.5100   23.8950 N   0  0  0  0  0  0  0  0  0  0  0  0
  8  9  1  0
  9 10  1  0
 10 11  1  0
 10 12  2  0
 12 13  1  0
 13 14  1  0
 13  1  1  0
  1  2  2  0
  2  3  1  0
  3 21  1  0
 21 22  1  0
 22 23  2  0
 22 25  1  0
 25 26  2  0
 26 27  1  0
 27 28  2  0
 28 29  1  0
 28 30  1  0
 30 31  2  0
  3  4  2  0
  4  5  1  0
  5  6  2  0
  6  7  1  0
 13 15  1  0
 15 16  1  0
 16 17  2  0
 16 18  2  0
 16  9  1  0
  6  1  1  0
 31 25  1  0
 11 19  1  0
 11 20  1  0
 21 24  1  0
M  END
> <meeko>
{"is_sidechain": false}

> <source_group>
BACE1-401 observed AD isoform

> <source_system>
BACE1_verubecestat_401

> <source_run>
alternate_401_seed1103_ex32

> <source_seed>
1103

> <vina_pose_rank>
20

> <vina_affinity_kcal_mol>
-7.5229999999999997

> <vina_rmsd_to_crystal_angstrom>
11.0473

> <minimizedAffinity>
-7.73092

> <CNNscore>
0.4010832012

> <CNNaffinity>
6.1261706352

> <CNN_VS>
2.4571042061

> <CNNaffinity_variance>
0.0835596099

$$$$
