BACE1_verubecestat__alternate_457_seed5519_ex32__pose01
     RDKit          3D

 45 47  0  0  0  0  0  0  0  0999 V2000
   27.8310   12.6780   23.5380 C   0  0  0  0  0  0  0  0  0  0  0  0
   26.9220   13.1540   22.4770 N   0  0  0  0  0  0  0  0  0  0  0  0
   26.0260   14.2310   22.6570 C   0  0  0  0  0  0  0  0  0  0  0  0
   26.1810   14.8900   23.8470 N   0  0  0  0  0  0  0  0  0  0  0  0
   25.1450   14.5920   21.7750 N   0  0  0  0  0  0  0  0  0  0  0  0
   24.9250   13.8240   20.5510 C   0  0  2  0  0  0  0  0  0  0  0  0
   24.2020   14.8250   19.6440 C   0  0  0  0  0  0  0  0  0  0  0  0
   24.0150   12.6280   20.7840 C   0  0  0  0  0  0  0  0  0  0  0  0
   23.4750   12.3680   22.0430 C   0  0  0  0  0  0  0  0  0  0  0  0
   22.6520   11.2920   22.2830 C   0  0  0  0  0  0  0  0  0  0  0  0
   22.1750   11.1470   23.5920 N   0  0  0  0  0  0  0  0  0  0  0  0
   22.8870   11.2150   24.7770 C   0  0  0  0  0  0  0  0  0  0  0  0
   24.1050   11.2890   24.8620 O   0  0  0  0  0  0  0  0  0  0  0  0
   22.0630   11.2310   26.0100 C   0  0  0  0  0  0  0  0  0  0  0  0
   20.8130   10.6370   26.0150 C   0  0  0  0  0  0  0  0  0  0  0  0
   20.0880   10.6830   27.1920 C   0  0  0  0  0  0  0  0  0  0  0  0
   20.6210   11.3040   28.3050 C   0  0  0  0  0  0  0  0  0  0  0  0
   19.9500   11.3820   29.4670 F   0  0  0  0  0  0  0  0  0  0  0  0
   21.8700   11.8720   28.2000 C   0  0  0  0  0  0  0  0  0  0  0  0
   22.5960   11.8480   27.0700 N   0  0  0  0  0  0  0  0  0  0  0  0
   22.3090   10.4250   21.2530 C   0  0  0  0  0  0  0  0  0  0  0  0
   22.8380   10.6650   19.9980 C   0  0  0  0  0  0  0  0  0  0  0  0
   23.6890   11.7310   19.7780 C   0  0  0  0  0  0  0  0  0  0  0  0
   24.2180   11.9280   18.5440 F   0  0  0  0  0  0  0  0  0  0  0  0
   26.2480   13.5050   19.8920 C   0  0  0  0  0  0  0  0  0  0  0  0
   27.2290   12.4540   20.9340 S   0  0  0  0  0  0  0  0  0  0  0  0
   28.6170   12.7260   20.6070 O   0  0  0  0  0  0  0  0  0  0  0  0
   26.6700   11.1420   21.0370 O   0  0  0  0  0  0  0  0  0  0  0  0
   27.3964   12.9056   24.5225 H   0  0  0  0  0  0  0  0  0  0  0  0
   27.9704   11.5912   23.4411 H   0  0  0  0  0  0  0  0  0  0  0  0
   28.8037   13.1825   23.4411 H   0  0  0  0  0  0  0  0  0  0  0  0
   25.6020   15.6560   24.0650 H   0  0  0  0  0  0  0  0  0  0  0  0
   26.8720   14.5990   24.4850 H   0  0  0  0  0  0  0  0  0  0  0  0
   23.6695   15.5623   20.2628 H   0  0  0  0  0  0  0  0  0  0  0  0
   24.9368   15.3416   19.0090 H   0  0  0  0  0  0  0  0  0  0  0  0
   23.4806   14.2898   19.0090 H   0  0  0  0  0  0  0  0  0  0  0  0
   23.7156   13.0474   22.8739 H   0  0  0  0  0  0  0  0  0  0  0  0
   21.2090   10.9740   23.6800 H   0  0  0  0  0  0  0  0  0  0  0  0
   20.4110   10.1465   25.1162 H   0  0  0  0  0  0  0  0  0  0  0  0
   19.0887   10.2259   27.2418 H   0  0  0  0  0  0  0  0  0  0  0  0
   22.2945   12.3698   29.0843 H   0  0  0  0  0  0  0  0  0  0  0  0
   21.6365    9.5728   21.4305 H   0  0  0  0  0  0  0  0  0  0  0  0
   22.5776    9.9978   19.1631 H   0  0  0  0  0  0  0  0  0  0  0  0
   26.0615   12.9937   18.9361 H   0  0  0  0  0  0  0  0  0  0  0  0
   26.7944   14.4443   19.7214 H   0  0  0  0  0  0  0  0  0  0  0  0
  1  2  1  0
  2  3  1  0
  3  4  1  0
  3  5  2  0
  5  6  1  0
  6  7  1  6
  6  8  1  0
  8  9  2  0
  9 10  1  0
 10 11  1  0
 11 12  1  0
 12 13  2  0
 12 14  1  0
 14 15  2  0
 15 16  1  0
 16 17  2  0
 17 18  1  0
 17 19  1  0
 19 20  2  0
 10 21  2  0
 21 22  1  0
 22 23  2  0
 23 24  1  0
  6 25  1  0
 25 26  1  0
 26 27  2  0
 26 28  2  0
 26  2  1  0
 23  8  1  0
 20 14  1  0
  1 29  1  0
  1 30  1  0
  1 31  1  0
  4 32  1  0
  4 33  1  0
  7 34  1  0
  7 35  1  0
  7 36  1  0
  9 37  1  0
 11 38  1  0
 15 39  1  0
 16 40  1  0
 19 41  1  0
 21 42  1  0
 22 43  1  0
 25 44  1  0
 25 45  1  0
M  END
>  <meeko>  (1)
{"is_sidechain": false}

>  <source_group>  (1)
BACE1-457

>  <source_system>  (1)
BACE1_verubecestat

>  <source_run>  (1)
alternate_457_seed5519_ex32

>  <source_seed>  (1)
5519

>  <vina_pose_rank>  (1)
1

>  <vina_affinity_kcal_mol>  (1)
-8.2680000000000007

>  <vina_rmsd_to_crystal_angstrom>  (1)
7.0323000000000002

$$$$
BACE1_verubecestat__alternate_457_seed5519_ex32__pose02
     RDKit          3D

 45 47  0  0  0  0  0  0  0  0999 V2000
   28.2580    9.6720   20.9940 C   0  0  0  0  0  0  0  0  0  0  0  0
   27.8970   11.0950   20.8370 N   0  0  0  0  0  0  0  0  0  0  0  0
   27.9480   12.0240   21.9000 C   0  0  0  0  0  0  0  0  0  0  0  0
   28.5050   11.5250   23.0480 N   0  0  0  0  0  0  0  0  0  0  0  0
   27.5330   13.2490   21.8080 N   0  0  0  0  0  0  0  0  0  0  0  0
   26.8540   13.7420   20.6110 C   0  0  2  0  0  0  0  0  0  0  0  0
   26.9830   15.2620   20.7450 C   0  0  0  0  0  0  0  0  0  0  0  0
   25.3790   13.3740   20.5980 C   0  0  0  0  0  0  0  0  0  0  0  0
   24.7690   12.8050   21.7150 C   0  0  0  0  0  0  0  0  0  0  0  0
   23.4370   12.4590   21.7310 C   0  0  0  0  0  0  0  0  0  0  0  0
   22.9480   11.8980   22.9180 N   0  0  0  0  0  0  0  0  0  0  0  0
   22.4800   12.5500   24.0450 C   0  0  0  0  0  0  0  0  0  0  0  0
   22.5390   13.7580   24.2360 O   0  0  0  0  0  0  0  0  0  0  0  0
   21.8320   11.6800   25.0560 C   0  0  0  0  0  0  0  0  0  0  0  0
   21.9370   10.3040   24.9530 C   0  0  0  0  0  0  0  0  0  0  0  0
   21.3120    9.5400   25.9230 C   0  0  0  0  0  0  0  0  0  0  0  0
   20.6200   10.1590   26.9460 C   0  0  0  0  0  0  0  0  0  0  0  0
   19.9900    9.4590   27.9050 F   0  0  0  0  0  0  0  0  0  0  0  0
   20.5670   11.5350   26.9600 C   0  0  0  0  0  0  0  0  0  0  0  0
   21.1590   12.3020   26.0300 N   0  0  0  0  0  0  0  0  0  0  0  0
   22.6370   12.6910   20.6190 C   0  0  0  0  0  0  0  0  0  0  0  0
   23.2260   13.2520   19.5000 C   0  0  0  0  0  0  0  0  0  0  0  0
   24.5710   13.5650   19.4880 C   0  0  0  0  0  0  0  0  0  0  0  0
   25.1310   14.0870   18.3660 F   0  0  0  0  0  0  0  0  0  0  0  0
   27.6260   13.3400   19.3740 C   0  0  0  0  0  0  0  0  0  0  0  0
   27.6570   11.5730   19.2010 S   0  0  0  0  0  0  0  0  0  0  0  0
   28.8720   11.2490   18.4760 O   0  0  0  0  0  0  0  0  0  0  0  0
   26.3650   11.0520   18.8790 O   0  0  0  0  0  0  0  0  0  0  0  0
   28.3205    9.4255   22.0642 H   0  0  0  0  0  0  0  0  0  0  0  0
   27.4906    9.0443   20.5174 H   0  0  0  0  0  0  0  0  0  0  0  0
   29.2318    9.4860   20.5174 H   0  0  0  0  0  0  0  0  0  0  0  0
   28.5850   12.0980   23.8450 H   0  0  0  0  0  0  0  0  0  0  0  0
   28.8260   10.5950   23.0750 H   0  0  0  0  0  0  0  0  0  0  0  0
   27.0062   15.5355   21.8102 H   0  0  0  0  0  0  0  0  0  0  0  0
   27.9127   15.5952   20.2605 H   0  0  0  0  0  0  0  0  0  0  0  0
   26.1228   15.7471   20.2605 H   0  0  0  0  0  0  0  0  0  0  0  0
   25.3741   12.6261   22.6160 H   0  0  0  0  0  0  0  0  0  0  0  0
   22.9370   10.9140   22.9550 H   0  0  0  0  0  0  0  0  0  0  0  0
   22.4966    9.8348   24.1304 H   0  0  0  0  0  0  0  0  0  0  0  0
   21.3661    8.4422   25.8795 H   0  0  0  0  0  0  0  0  0  0  0  0
   20.0133   12.0295   27.7717 H   0  0  0  0  0  0  0  0  0  0  0  0
   21.5670   12.4362   20.6281 H   0  0  0  0  0  0  0  0  0  0  0  0
   22.6146   13.4515   18.6076 H   0  0  0  0  0  0  0  0  0  0  0  0
   27.1448   13.7812   18.4887 H   0  0  0  0  0  0  0  0  0  0  0  0
   28.6596   13.7046   19.4678 H   0  0  0  0  0  0  0  0  0  0  0  0
  1  2  1  0
  2  3  1  0
  3  4  1  0
  3  5  2  0
  5  6  1  0
  6  7  1  1
  6  8  1  0
  8  9  2  0
  9 10  1  0
 10 11  1  0
 11 12  1  0
 12 13  2  0
 12 14  1  0
 14 15  2  0
 15 16  1  0
 16 17  2  0
 17 18  1  0
 17 19  1  0
 19 20  2  0
 10 21  2  0
 21 22  1  0
 22 23  2  0
 23 24  1  0
  6 25  1  0
 25 26  1  0
 26 27  2  0
 26 28  2  0
 26  2  1  0
 23  8  1  0
 20 14  1  0
  1 29  1  0
  1 30  1  0
  1 31  1  0
  4 32  1  0
  4 33  1  0
  7 34  1  0
  7 35  1  0
  7 36  1  0
  9 37  1  0
 11 38  1  0
 15 39  1  0
 16 40  1  0
 19 41  1  0
 21 42  1  0
 22 43  1  0
 25 44  1  0
 25 45  1  0
M  END
>  <meeko>  (2)
{"is_sidechain": false}

>  <source_group>  (2)
BACE1-457

>  <source_system>  (2)
BACE1_verubecestat

>  <source_run>  (2)
alternate_457_seed5519_ex32

>  <source_seed>  (2)
5519

>  <vina_pose_rank>  (2)
2

>  <vina_affinity_kcal_mol>  (2)
-7.9560000000000004

>  <vina_rmsd_to_crystal_angstrom>  (2)
7.3181000000000003

$$$$
BACE1_verubecestat__alternate_457_seed5519_ex32__pose03
     RDKit          3D

 45 47  0  0  0  0  0  0  0  0999 V2000
   22.7190    4.8410   19.2000 C   0  0  0  0  0  0  0  0  0  0  0  0
   22.1160    5.8680   18.3270 N   0  0  0  0  0  0  0  0  0  0  0  0
   21.9700    5.7040   16.9320 C   0  0  0  0  0  0  0  0  0  0  0  0
   22.2960    4.4520   16.4830 N   0  0  0  0  0  0  0  0  0  0  0  0
   21.5430    6.6350   16.1360 N   0  0  0  0  0  0  0  0  0  0  0  0
   21.2900    7.9940   16.6110 C   0  0  2  0  0  0  0  0  0  0  0  0
   20.3900    8.5770   15.5180 C   0  0  0  0  0  0  0  0  0  0  0  0
   22.5650    8.8190   16.6890 C   0  0  0  0  0  0  0  0  0  0  0  0
   23.7850    8.3000   16.2590 C   0  0  0  0  0  0  0  0  0  0  0  0
   24.9550    9.0230   16.3210 C   0  0  0  0  0  0  0  0  0  0  0  0
   26.1120    8.3850   15.8540 N   0  0  0  0  0  0  0  0  0  0  0  0
   27.3100    8.1910   16.5180 C   0  0  0  0  0  0  0  0  0  0  0  0
   27.6000    8.6730   17.6050 O   0  0  0  0  0  0  0  0  0  0  0  0
   28.2740    7.2940   15.8340 C   0  0  0  0  0  0  0  0  0  0  0  0
   27.8930    6.0110   15.4820 C   0  0  0  0  0  0  0  0  0  0  0  0
   28.8330    5.2160   14.8490 C   0  0  0  0  0  0  0  0  0  0  0  0
   30.0940    5.7170   14.5890 C   0  0  0  0  0  0  0  0  0  0  0  0
   31.0420    4.9800   13.9850 F   0  0  0  0  0  0  0  0  0  0  0  0
   30.3800    7.0040   14.9830 C   0  0  0  0  0  0  0  0  0  0  0  0
   29.4920    7.7970   15.6050 N   0  0  0  0  0  0  0  0  0  0  0  0
   24.9530   10.3260   16.8020 C   0  0  0  0  0  0  0  0  0  0  0  0
   23.7510   10.8560   17.2370 C   0  0  0  0  0  0  0  0  0  0  0  0
   22.5900   10.1080   17.1990 C   0  0  0  0  0  0  0  0  0  0  0  0
   21.4290   10.6420   17.6580 F   0  0  0  0  0  0  0  0  0  0  0  0
   20.4730    7.9560   17.8830 C   0  0  0  0  0  0  0  0  0  0  0  0
   21.3800    7.1650   19.1880 S   0  0  0  0  0  0  0  0  0  0  0  0
   20.3970    6.5840   20.0830 O   0  0  0  0  0  0  0  0  0  0  0  0
   22.4870    7.9610   19.6180 O   0  0  0  0  0  0  0  0  0  0  0  0
   22.5583    5.1147   20.2532 H   0  0  0  0  0  0  0  0  0  0  0  0
   22.2494    3.8669   18.9986 H   0  0  0  0  0  0  0  0  0  0  0  0
   23.7985    4.7764   18.9986 H   0  0  0  0  0  0  0  0  0  0  0  0
   22.2260    4.2390   15.5240 H   0  0  0  0  0  0  0  0  0  0  0  0
   22.5990    3.7640   17.1190 H   0  0  0  0  0  0  0  0  0  0  0  0
   19.5532    9.1191   15.9826 H   0  0  0  0  0  0  0  0  0  0  0  0
   20.9734    9.2692   14.8931 H   0  0  0  0  0  0  0  0  0  0  0  0
   19.9968    7.7616   14.8931 H   0  0  0  0  0  0  0  0  0  0  0  0
   23.8141    7.2769   15.8560 H   0  0  0  0  0  0  0  0  0  0  0  0
   26.0660    8.0300   14.9370 H   0  0  0  0  0  0  0  0  0  0  0  0
   26.8812    5.6369   15.6971 H   0  0  0  0  0  0  0  0  0  0  0  0
   28.5766    4.1879   14.5537 H   0  0  0  0  0  0  0  0  0  0  0  0
   31.3846    7.4028   14.7787 H   0  0  0  0  0  0  0  0  0  0  0  0
   25.8790   10.9188   16.8361 H   0  0  0  0  0  0  0  0  0  0  0  0
   23.7194   11.8873   17.6184 H   0  0  0  0  0  0  0  0  0  0  0  0
   20.2280    8.9848   18.1857 H   0  0  0  0  0  0  0  0  0  0  0  0
   19.5524    7.3840   17.6950 H   0  0  0  0  0  0  0  0  0  0  0  0
  1  2  1  0
  2  3  1  0
  3  4  1  0
  3  5  2  0
  5  6  1  0
  6  7  1  6
  6  8  1  0
  8  9  2  0
  9 10  1  0
 10 11  1  0
 11 12  1  0
 12 13  2  0
 12 14  1  0
 14 15  2  0
 15 16  1  0
 16 17  2  0
 17 18  1  0
 17 19  1  0
 19 20  2  0
 10 21  2  0
 21 22  1  0
 22 23  2  0
 23 24  1  0
  6 25  1  0
 25 26  1  0
 26 27  2  0
 26 28  2  0
 26  2  1  0
 23  8  1  0
 20 14  1  0
  1 29  1  0
  1 30  1  0
  1 31  1  0
  4 32  1  0
  4 33  1  0
  7 34  1  0
  7 35  1  0
  7 36  1  0
  9 37  1  0
 11 38  1  0
 15 39  1  0
 16 40  1  0
 19 41  1  0
 21 42  1  0
 22 43  1  0
 25 44  1  0
 25 45  1  0
M  END
>  <meeko>  (3)
{"is_sidechain": false}

>  <source_group>  (3)
BACE1-457

>  <source_system>  (3)
BACE1_verubecestat

>  <source_run>  (3)
alternate_457_seed5519_ex32

>  <source_seed>  (3)
5519

>  <vina_pose_rank>  (3)
3

>  <vina_affinity_kcal_mol>  (3)
-7.9349999999999996

>  <vina_rmsd_to_crystal_angstrom>  (3)
6.5217000000000001

$$$$
BACE1_verubecestat__alternate_457_seed5519_ex32__pose04
     RDKit          3D

 45 47  0  0  0  0  0  0  0  0999 V2000
   22.2970   12.4700   19.4750 C   0  0  0  0  0  0  0  0  0  0  0  0
   23.7460   12.2910   19.6950 N   0  0  0  0  0  0  0  0  0  0  0  0
   24.3260   11.0490   20.0340 C   0  0  0  0  0  0  0  0  0  0  0  0
   23.4510    9.9970   19.9910 N   0  0  0  0  0  0  0  0  0  0  0  0
   25.5790   10.8960   20.3360 N   0  0  0  0  0  0  0  0  0  0  0  0
   26.4810   12.0380   20.4710 C   0  0  2  0  0  0  0  0  0  0  0  0
   27.8670   11.3960   20.3520 C   0  0  0  0  0  0  0  0  0  0  0  0
   26.3630   12.7010   21.8340 C   0  0  0  0  0  0  0  0  0  0  0  0
   25.4400   12.2500   22.7770 C   0  0  0  0  0  0  0  0  0  0  0  0
   25.3100   12.8330   24.0170 C   0  0  0  0  0  0  0  0  0  0  0  0
   24.3460   12.2810   24.8710 N   0  0  0  0  0  0  0  0  0  0  0  0
   23.0160   12.6380   25.0060 C   0  0  0  0  0  0  0  0  0  0  0  0
   22.4880   13.6060   24.4740 O   0  0  0  0  0  0  0  0  0  0  0  0
   22.1980   11.7260   25.8430 C   0  0  0  0  0  0  0  0  0  0  0  0
   21.5450   10.6530   25.2600 C   0  0  0  0  0  0  0  0  0  0  0  0
   20.7940    9.8360   26.0870 C   0  0  0  0  0  0  0  0  0  0  0  0
   20.7230   10.1060   27.4400 C   0  0  0  0  0  0  0  0  0  0  0  0
   19.9990    9.3470   28.2800 F   0  0  0  0  0  0  0  0  0  0  0  0
   21.4030   11.2000   27.9250 C   0  0  0  0  0  0  0  0  0  0  0  0
   22.1340   12.0150   27.1470 N   0  0  0  0  0  0  0  0  0  0  0  0
   26.1240   13.8970   24.3830 C   0  0  0  0  0  0  0  0  0  0  0  0
   27.0440   14.3600   23.4590 C   0  0  0  0  0  0  0  0  0  0  0  0
   27.1420   13.7860   22.2070 C   0  0  0  0  0  0  0  0  0  0  0  0
   28.0320   14.2790   21.3080 F   0  0  0  0  0  0  0  0  0  0  0  0
   26.3220   12.9680   19.2890 C   0  0  0  0  0  0  0  0  0  0  0  0
   24.6890   13.6630   19.2550 S   0  0  0  0  0  0  0  0  0  0  0  0
   24.3940   13.9590   17.8650 O   0  0  0  0  0  0  0  0  0  0  0  0
   24.4820   14.5800   20.3330 O   0  0  0  0  0  0  0  0  0  0  0  0
   21.7838   12.5334   20.4459 H   0  0  0  0  0  0  0  0  0  0  0  0
   22.1240   13.3963   18.9076 H   0  0  0  0  0  0  0  0  0  0  0  0
   21.9037   11.6136   18.9076 H   0  0  0  0  0  0  0  0  0  0  0  0
   23.7620    9.0890   20.2120 H   0  0  0  0  0  0  0  0  0  0  0  0
   22.5110   10.1480   19.7400 H   0  0  0  0  0  0  0  0  0  0  0  0
   28.2718   11.2085   21.3575 H   0  0  0  0  0  0  0  0  0  0  0  0
   27.7847   10.4443   19.8065 H   0  0  0  0  0  0  0  0  0  0  0  0
   28.5397   12.0742   19.8065 H   0  0  0  0  0  0  0  0  0  0  0  0
   24.7929   11.3982   22.5208 H   0  0  0  0  0  0  0  0  0  0  0  0
   24.6550   11.5460   25.4490 H   0  0  0  0  0  0  0  0  0  0  0  0
   21.6204   10.4574   24.1802 H   0  0  0  0  0  0  0  0  0  0  0  0
   20.2549    8.9736   25.6679 H   0  0  0  0  0  0  0  0  0  0  0  0
   21.3450   11.4173   29.0018 H   0  0  0  0  0  0  0  0  0  0  0  0
   26.0398   14.3581   25.3781 H   0  0  0  0  0  0  0  0  0  0  0  0
   27.7064   15.1968   23.7255 H   0  0  0  0  0  0  0  0  0  0  0  0
   27.0591   13.7808   19.3670 H   0  0  0  0  0  0  0  0  0  0  0  0
   26.4827   12.3955   18.3636 H   0  0  0  0  0  0  0  0  0  0  0  0
  1  2  1  0
  2  3  1  0
  3  4  1  0
  3  5  2  0
  5  6  1  0
  6  7  1  1
  6  8  1  0
  8  9  2  0
  9 10  1  0
 10 11  1  0
 11 12  1  0
 12 13  2  0
 12 14  1  0
 14 15  2  0
 15 16  1  0
 16 17  2  0
 17 18  1  0
 17 19  1  0
 19 20  2  0
 10 21  2  0
 21 22  1  0
 22 23  2  0
 23 24  1  0
  6 25  1  0
 25 26  1  0
 26 27  2  0
 26 28  2  0
 26  2  1  0
 23  8  1  0
 20 14  1  0
  1 29  1  0
  1 30  1  0
  1 31  1  0
  4 32  1  0
  4 33  1  0
  7 34  1  0
  7 35  1  0
  7 36  1  0
  9 37  1  0
 11 38  1  0
 15 39  1  0
 16 40  1  0
 19 41  1  0
 21 42  1  0
 22 43  1  0
 25 44  1  0
 25 45  1  0
M  END
>  <meeko>  (4)
{"is_sidechain": false}

>  <source_group>  (4)
BACE1-457

>  <source_system>  (4)
BACE1_verubecestat

>  <source_run>  (4)
alternate_457_seed5519_ex32

>  <source_seed>  (4)
5519

>  <vina_pose_rank>  (4)
4

>  <vina_affinity_kcal_mol>  (4)
-7.819

>  <vina_rmsd_to_crystal_angstrom>  (4)
7.1157000000000004

$$$$
BACE1_verubecestat__alternate_457_seed5519_ex32__pose05
     RDKit          3D

 45 47  0  0  0  0  0  0  0  0999 V2000
   28.2000    9.7000   20.0220 C   0  0  0  0  0  0  0  0  0  0  0  0
   28.6260   11.0280   20.5060 N   0  0  0  0  0  0  0  0  0  0  0  0
   29.0920   11.2560   21.8200 C   0  0  0  0  0  0  0  0  0  0  0  0
   29.2590   10.1130   22.5560 N   0  0  0  0  0  0  0  0  0  0  0  0
   29.3670   12.4310   22.2940 N   0  0  0  0  0  0  0  0  0  0  0  0
   29.0960   13.6500   21.5330 C   0  0  2  0  0  0  0  0  0  0  0  0
   29.9770   14.6920   22.2270 C   0  0  0  0  0  0  0  0  0  0  0  0
   27.6420   14.0820   21.6460 C   0  0  0  0  0  0  0  0  0  0  0  0
   26.7140   13.3110   22.3440 C   0  0  0  0  0  0  0  0  0  0  0  0
   25.3920   13.6760   22.4610 C   0  0  0  0  0  0  0  0  0  0  0  0
   24.5650   12.8130   23.1920 N   0  0  0  0  0  0  0  0  0  0  0  0
   24.3660   12.7720   24.5600 C   0  0  0  0  0  0  0  0  0  0  0  0
   24.9990   13.4200   25.3840 O   0  0  0  0  0  0  0  0  0  0  0  0
   23.2670   11.8850   25.0140 C   0  0  0  0  0  0  0  0  0  0  0  0
   22.9090   10.7850   24.2540 C   0  0  0  0  0  0  0  0  0  0  0  0
   21.8750    9.9930   24.7240 C   0  0  0  0  0  0  0  0  0  0  0  0
   21.2470   10.3150   25.9120 C   0  0  0  0  0  0  0  0  0  0  0  0
   20.2340    9.5810   26.4020 F   0  0  0  0  0  0  0  0  0  0  0  0
   21.6710   11.4330   26.5930 C   0  0  0  0  0  0  0  0  0  0  0  0
   22.6670   12.2240   26.1600 N   0  0  0  0  0  0  0  0  0  0  0  0
   24.9370   14.8590   21.8930 C   0  0  0  0  0  0  0  0  0  0  0  0
   25.8430   15.6350   21.1930 C   0  0  0  0  0  0  0  0  0  0  0  0
   27.1590   15.2400   21.0570 C   0  0  0  0  0  0  0  0  0  0  0  0
   28.0220   16.0050   20.3400 F   0  0  0  0  0  0  0  0  0  0  0  0
   29.6130   13.5040   20.1190 C   0  0  0  0  0  0  0  0  0  0  0  0
   28.7450   12.2130   19.2630 S   0  0  0  0  0  0  0  0  0  0  0  0
   29.6570   11.6950   18.2600 O   0  0  0  0  0  0  0  0  0  0  0  0
   27.3860   12.5740   19.0040 O   0  0  0  0  0  0  0  0  0  0  0  0
   27.9903    9.0464   20.8816 H   0  0  0  0  0  0  0  0  0  0  0  0
   27.2909    9.8064   19.4119 H   0  0  0  0  0  0  0  0  0  0  0  0
   29.0013    9.2577   19.4119 H   0  0  0  0  0  0  0  0  0  0  0  0
   29.5810   10.1690   23.4850 H   0  0  0  0  0  0  0  0  0  0  0  0
   29.0570    9.2360   22.1570 H   0  0  0  0  0  0  0  0  0  0  0  0
   29.8845   14.5825   23.3176 H   0  0  0  0  0  0  0  0  0  0  0  0
   31.0256   14.5412   21.9310 H   0  0  0  0  0  0  0  0  0  0  0  0
   29.6539   15.7010   21.9310 H   0  0  0  0  0  0  0  0  0  0  0  0
   27.0502   12.3773   22.8184 H   0  0  0  0  0  0  0  0  0  0  0  0
   24.0600   12.1530   22.6640 H   0  0  0  0  0  0  0  0  0  0  0  0
   23.4263   10.5489   23.3124 H   0  0  0  0  0  0  0  0  0  0  0  0
   21.5542    9.1093   24.1529 H   0  0  0  0  0  0  0  0  0  0  0  0
   21.1703   11.6917   27.5376 H   0  0  0  0  0  0  0  0  0  0  0  0
   23.8869   15.1696   21.9968 H   0  0  0  0  0  0  0  0  0  0  0  0
   25.5105   16.5799   20.7384 H   0  0  0  0  0  0  0  0  0  0  0  0
   29.4691   14.4533   19.5822 H   0  0  0  0  0  0  0  0  0  0  0  0
   30.6815   13.2457   20.1582 H   0  0  0  0  0  0  0  0  0  0  0  0
  1  2  1  0
  2  3  1  0
  3  4  1  0
  3  5  2  0
  5  6  1  0
  6  7  1  1
  6  8  1  0
  8  9  2  0
  9 10  1  0
 10 11  1  0
 11 12  1  0
 12 13  2  0
 12 14  1  0
 14 15  2  0
 15 16  1  0
 16 17  2  0
 17 18  1  0
 17 19  1  0
 19 20  2  0
 10 21  2  0
 21 22  1  0
 22 23  2  0
 23 24  1  0
  6 25  1  0
 25 26  1  0
 26 27  2  0
 26 28  2  0
 26  2  1  0
 23  8  1  0
 20 14  1  0
  1 29  1  0
  1 30  1  0
  1 31  1  0
  4 32  1  0
  4 33  1  0
  7 34  1  0
  7 35  1  0
  7 36  1  0
  9 37  1  0
 11 38  1  0
 15 39  1  0
 16 40  1  0
 19 41  1  0
 21 42  1  0
 22 43  1  0
 25 44  1  0
 25 45  1  0
M  END
>  <meeko>  (5)
{"is_sidechain": false}

>  <source_group>  (5)
BACE1-457

>  <source_system>  (5)
BACE1_verubecestat

>  <source_run>  (5)
alternate_457_seed5519_ex32

>  <source_seed>  (5)
5519

>  <vina_pose_rank>  (5)
5

>  <vina_affinity_kcal_mol>  (5)
-7.5960000000000001

>  <vina_rmsd_to_crystal_angstrom>  (5)
7.7426000000000004

$$$$
BACE1_verubecestat__alternate_457_seed5519_ex32__pose06
     RDKit          3D

 45 47  0  0  0  0  0  0  0  0999 V2000
   20.9870   12.6750   16.2680 C   0  0  0  0  0  0  0  0  0  0  0  0
   22.1550   12.8630   17.1510 N   0  0  0  0  0  0  0  0  0  0  0  0
   23.3910   12.2120   16.9430 C   0  0  0  0  0  0  0  0  0  0  0  0
   23.4590   11.5120   15.7670 N   0  0  0  0  0  0  0  0  0  0  0  0
   24.3910   12.2790   17.7670 N   0  0  0  0  0  0  0  0  0  0  0  0
   24.2750   12.9490   19.0610 C   0  0  2  0  0  0  0  0  0  0  0  0
   25.7350   13.1980   19.4500 C   0  0  0  0  0  0  0  0  0  0  0  0
   23.6320   12.0550   20.1110 C   0  0  0  0  0  0  0  0  0  0  0  0
   23.3170   10.7270   19.8290 C   0  0  0  0  0  0  0  0  0  0  0  0
   22.7330    9.8960   20.7590 C   0  0  0  0  0  0  0  0  0  0  0  0
   22.4690    8.5830   20.3490 N   0  0  0  0  0  0  0  0  0  0  0  0
   21.6530    8.1540   19.3170 C   0  0  0  0  0  0  0  0  0  0  0  0
   20.9100    8.8730   18.6620 O   0  0  0  0  0  0  0  0  0  0  0  0
   21.7450    6.7100   18.9950 C   0  0  0  0  0  0  0  0  0  0  0  0
   22.6550    6.2690   18.0510 C   0  0  0  0  0  0  0  0  0  0  0  0
   22.6970    4.9110   17.7880 C   0  0  0  0  0  0  0  0  0  0  0  0
   21.8510    4.0530   18.4630 C   0  0  0  0  0  0  0  0  0  0  0  0
   21.8500    2.7290   18.2350 F   0  0  0  0  0  0  0  0  0  0  0  0
   20.9760    4.5870   19.3810 C   0  0  0  0  0  0  0  0  0  0  0  0
   20.9080    5.9010   19.6530 N   0  0  0  0  0  0  0  0  0  0  0  0
   22.4540   10.3590   22.0390 C   0  0  0  0  0  0  0  0  0  0  0  0
   22.7580   11.6760   22.3350 C   0  0  0  0  0  0  0  0  0  0  0  0
   23.3140   12.5070   21.3820 C   0  0  0  0  0  0  0  0  0  0  0  0
   23.5750   13.8030   21.6890 F   0  0  0  0  0  0  0  0  0  0  0  0
   23.6250   14.3040   18.8890 C   0  0  0  0  0  0  0  0  0  0  0  0
   21.9590   14.1300   18.3000 S   0  0  0  0  0  0  0  0  0  0  0  0
   21.6540   15.3400   17.5580 O   0  0  0  0  0  0  0  0  0  0  0  0
   21.1050   13.5600   19.2950 O   0  0  0  0  0  0  0  0  0  0  0  0
   20.0844   12.5297   16.8798 H   0  0  0  0  0  0  0  0  0  0  0  0
   20.8604   13.5643   15.6331 H   0  0  0  0  0  0  0  0  0  0  0  0
   21.1458   11.7909   15.6331 H   0  0  0  0  0  0  0  0  0  0  0  0
   24.2810   11.0240   15.5320 H   0  0  0  0  0  0  0  0  0  0  0  0
   22.6860   11.4980   15.1570 H   0  0  0  0  0  0  0  0  0  0  0  0
   25.8249   13.2133   20.5462 H   0  0  0  0  0  0  0  0  0  0  0  0
   26.3654   12.3944   19.0416 H   0  0  0  0  0  0  0  0  0  0  0  0
   26.0634   14.1651   19.0416 H   0  0  0  0  0  0  0  0  0  0  0  0
   23.5427   10.3287   18.8288 H   0  0  0  0  0  0  0  0  0  0  0  0
   22.9240    7.8750   20.8600 H   0  0  0  0  0  0  0  0  0  0  0  0
   23.3207    6.9719   17.5287 H   0  0  0  0  0  0  0  0  0  0  0  0
   23.4029    4.5157   17.0427 H   0  0  0  0  0  0  0  0  0  0  0  0
   20.2998    3.9054   19.9179 H   0  0  0  0  0  0  0  0  0  0  0  0
   22.0047    9.6980   22.7948 H   0  0  0  0  0  0  0  0  0  0  0  0
   22.5541   12.0665   23.3429 H   0  0  0  0  0  0  0  0  0  0  0  0
   23.6130   14.8245   19.8580 H   0  0  0  0  0  0  0  0  0  0  0  0
   24.2021   14.8824   18.1525 H   0  0  0  0  0  0  0  0  0  0  0  0
  1  2  1  0
  2  3  1  0
  3  4  1  0
  3  5  2  0
  5  6  1  0
  6  7  1  1
  6  8  1  0
  8  9  2  0
  9 10  1  0
 10 11  1  0
 11 12  1  0
 12 13  2  0
 12 14  1  0
 14 15  2  0
 15 16  1  0
 16 17  2  0
 17 18  1  0
 17 19  1  0
 19 20  2  0
 10 21  2  0
 21 22  1  0
 22 23  2  0
 23 24  1  0
  6 25  1  0
 25 26  1  0
 26 27  2  0
 26 28  2  0
 26  2  1  0
 23  8  1  0
 20 14  1  0
  1 29  1  0
  1 30  1  0
  1 31  1  0
  4 32  1  0
  4 33  1  0
  7 34  1  0
  7 35  1  0
  7 36  1  0
  9 37  1  0
 11 38  1  0
 15 39  1  0
 16 40  1  0
 19 41  1  0
 21 42  1  0
 22 43  1  0
 25 44  1  0
 25 45  1  0
M  END
>  <meeko>  (6)
{"is_sidechain": false}

>  <source_group>  (6)
BACE1-457

>  <source_system>  (6)
BACE1_verubecestat

>  <source_run>  (6)
alternate_457_seed5519_ex32

>  <source_seed>  (6)
5519

>  <vina_pose_rank>  (6)
6

>  <vina_affinity_kcal_mol>  (6)
-7.5629999999999997

>  <vina_rmsd_to_crystal_angstrom>  (6)
7.1040999999999999

$$$$
BACE1_verubecestat__alternate_457_seed5519_ex32__pose07
     RDKit          3D

 45 47  0  0  0  0  0  0  0  0999 V2000
   26.4990   10.9420   16.8040 C   0  0  0  0  0  0  0  0  0  0  0  0
   26.5740   11.3820   18.2110 N   0  0  0  0  0  0  0  0  0  0  0  0
   27.2280   10.6370   19.2170 C   0  0  0  0  0  0  0  0  0  0  0  0
   27.9150    9.5510   18.7450 N   0  0  0  0  0  0  0  0  0  0  0  0
   27.2110   10.9520   20.4750 N   0  0  0  0  0  0  0  0  0  0  0  0
   26.3970   12.0570   20.9790 C   0  0  2  0  0  0  0  0  0  0  0  0
   27.0300   12.3560   22.3410 C   0  0  0  0  0  0  0  0  0  0  0  0
   24.9470   11.6480   21.1900 C   0  0  0  0  0  0  0  0  0  0  0  0
   24.4890   10.3910   20.7990 C   0  0  0  0  0  0  0  0  0  0  0  0
   23.1830    9.9960   20.9750 C   0  0  0  0  0  0  0  0  0  0  0  0
   22.8530    8.7060   20.5390 N   0  0  0  0  0  0  0  0  0  0  0  0
   21.9680    8.3380   19.5420 C   0  0  0  0  0  0  0  0  0  0  0  0
   21.2160    9.1020   18.9510 O   0  0  0  0  0  0  0  0  0  0  0  0
   21.9940    6.9020   19.1700 C   0  0  0  0  0  0  0  0  0  0  0  0
   22.7520    6.4810   18.0920 C   0  0  0  0  0  0  0  0  0  0  0  0
   22.7380    5.1310   17.7880 C   0  0  0  0  0  0  0  0  0  0  0  0
   21.9870    4.2610   18.5560 C   0  0  0  0  0  0  0  0  0  0  0  0
   21.9350    2.9440   18.2940 F   0  0  0  0  0  0  0  0  0  0  0  0
   21.2610    4.7770   19.6050 C   0  0  0  0  0  0  0  0  0  0  0  0
   21.2500    6.0820   19.9200 N   0  0  0  0  0  0  0  0  0  0  0  0
   22.2660   10.8460   21.5820 C   0  0  0  0  0  0  0  0  0  0  0  0
   22.7030   12.0990   21.9740 C   0  0  0  0  0  0  0  0  0  0  0  0
   24.0090   12.4940   21.7610 C   0  0  0  0  0  0  0  0  0  0  0  0
   24.4040   13.7400   22.1290 F   0  0  0  0  0  0  0  0  0  0  0  0
   26.5970   13.2840   20.1180 C   0  0  0  0  0  0  0  0  0  0  0  0
   26.0190   12.9920   18.4650 S   0  0  0  0  0  0  0  0  0  0  0  0
   26.7970   13.8570   17.5960 O   0  0  0  0  0  0  0  0  0  0  0  0
   24.5950   12.8750   18.4170 O   0  0  0  0  0  0  0  0  0  0  0  0
   26.3143    9.8582   16.7681 H   0  0  0  0  0  0  0  0  0  0  0  0
   25.6780   11.4709   16.2977 H   0  0  0  0  0  0  0  0  0  0  0  0
   27.4488   11.1690   16.2977 H   0  0  0  0  0  0  0  0  0  0  0  0
   28.4050    8.9690   19.3700 H   0  0  0  0  0  0  0  0  0  0  0  0
   27.9210    9.3520   17.7810 H   0  0  0  0  0  0  0  0  0  0  0  0
   26.3475   12.0336   23.1412 H   0  0  0  0  0  0  0  0  0  0  0  0
   27.9822   11.8125   22.4301 H   0  0  0  0  0  0  0  0  0  0  0  0
   27.2150   13.4367   22.4301 H   0  0  0  0  0  0  0  0  0  0  0  0
   25.1970    9.6898   20.3331 H   0  0  0  0  0  0  0  0  0  0  0  0
   23.3100    7.9660   21.0020 H   0  0  0  0  0  0  0  0  0  0  0  0
   23.3440    7.1931   17.4984 H   0  0  0  0  0  0  0  0  0  0  0  0
   23.3230    4.7512   16.9374 H   0  0  0  0  0  0  0  0  0  0  0  0
   20.6603    4.0865   20.2152 H   0  0  0  0  0  0  0  0  0  0  0  0
   21.2245   10.5322   21.7458 H   0  0  0  0  0  0  0  0  0  0  0  0
   22.0002   12.7902   22.4622 H   0  0  0  0  0  0  0  0  0  0  0  0
   26.0374   14.1253   20.5528 H   0  0  0  0  0  0  0  0  0  0  0  0
   27.6711   13.5185   20.0807 H   0  0  0  0  0  0  0  0  0  0  0  0
  1  2  1  0
  2  3  1  0
  3  4  1  0
  3  5  2  0
  5  6  1  0
  6  7  1  1
  6  8  1  0
  8  9  2  0
  9 10  1  0
 10 11  1  0
 11 12  1  0
 12 13  2  0
 12 14  1  0
 14 15  2  0
 15 16  1  0
 16 17  2  0
 17 18  1  0
 17 19  1  0
 19 20  2  0
 10 21  2  0
 21 22  1  0
 22 23  2  0
 23 24  1  0
  6 25  1  0
 25 26  1  0
 26 27  2  0
 26 28  2  0
 26  2  1  0
 23  8  1  0
 20 14  1  0
  1 29  1  0
  1 30  1  0
  1 31  1  0
  4 32  1  0
  4 33  1  0
  7 34  1  0
  7 35  1  0
  7 36  1  0
  9 37  1  0
 11 38  1  0
 15 39  1  0
 16 40  1  0
 19 41  1  0
 21 42  1  0
 22 43  1  0
 25 44  1  0
 25 45  1  0
M  END
>  <meeko>  (7)
{"is_sidechain": false}

>  <source_group>  (7)
BACE1-457

>  <source_system>  (7)
BACE1_verubecestat

>  <source_run>  (7)
alternate_457_seed5519_ex32

>  <source_seed>  (7)
5519

>  <vina_pose_rank>  (7)
7

>  <vina_affinity_kcal_mol>  (7)
-7.4059999999999997

>  <vina_rmsd_to_crystal_angstrom>  (7)
7.0932000000000004

$$$$
BACE1_verubecestat__alternate_457_seed5519_ex32__pose08
     RDKit          3D

 45 47  0  0  0  0  0  0  0  0999 V2000
   23.0440    5.6780   17.1640 C   0  0  0  0  0  0  0  0  0  0  0  0
   22.5950    7.0780   17.2960 N   0  0  0  0  0  0  0  0  0  0  0  0
   22.9590    8.0930   16.3830 C   0  0  0  0  0  0  0  0  0  0  0  0
   23.6350    7.6350   15.2840 N   0  0  0  0  0  0  0  0  0  0  0  0
   22.6640    9.3470   16.5420 N   0  0  0  0  0  0  0  0  0  0  0  0
   22.0260    9.8370   17.7630 C   0  0  2  0  0  0  0  0  0  0  0  0
   21.4570   11.1910   17.3320 C   0  0  0  0  0  0  0  0  0  0  0  0
   23.0310   10.0600   18.8820 C   0  0  0  0  0  0  0  0  0  0  0  0
   22.6360   10.0400   20.2190 C   0  0  0  0  0  0  0  0  0  0  0  0
   23.5230   10.2410   21.2520 C   0  0  0  0  0  0  0  0  0  0  0  0
   22.9970   10.1930   22.5500 N   0  0  0  0  0  0  0  0  0  0  0  0
   22.6690   11.2490   23.3810 C   0  0  0  0  0  0  0  0  0  0  0  0
   22.9140   12.4270   23.1540 O   0  0  0  0  0  0  0  0  0  0  0  0
   21.9340   10.8790   24.6150 C   0  0  0  0  0  0  0  0  0  0  0  0
   21.4950   11.8660   25.4810 C   0  0  0  0  0  0  0  0  0  0  0  0
   20.8170   11.4640   26.6180 C   0  0  0  0  0  0  0  0  0  0  0  0
   20.5980   10.1190   26.8490 C   0  0  0  0  0  0  0  0  0  0  0  0
   19.9530    9.6810   27.9430 F   0  0  0  0  0  0  0  0  0  0  0  0
   21.0780    9.2120   25.9320 C   0  0  0  0  0  0  0  0  0  0  0  0
   21.7450    9.5720   24.8230 N   0  0  0  0  0  0  0  0  0  0  0  0
   24.8710   10.4530   20.9910 C   0  0  0  0  0  0  0  0  0  0  0  0
   25.2800   10.4800   19.6690 C   0  0  0  0  0  0  0  0  0  0  0  0
   24.3740   10.3080   18.6420 C   0  0  0  0  0  0  0  0  0  0  0  0
   24.7970   10.3680   17.3530 F   0  0  0  0  0  0  0  0  0  0  0  0
   20.8500    8.9560   18.1230 C   0  0  0  0  0  0  0  0  0  0  0  0
   21.3930    7.3110   18.5070 S   0  0  0  0  0  0  0  0  0  0  0  0
   20.2870    6.4250   18.1900 O   0  0  0  0  0  0  0  0  0  0  0  0
   22.1290    7.2700   19.7320 O   0  0  0  0  0  0  0  0  0  0  0  0
   23.1839    5.2419   18.1641 H   0  0  0  0  0  0  0  0  0  0  0  0
   22.2861    5.1001   16.6147 H   0  0  0  0  0  0  0  0  0  0  0  0
   23.9966    5.6487   16.6147 H   0  0  0  0  0  0  0  0  0  0  0  0
   23.9310    8.2670   14.5900 H   0  0  0  0  0  0  0  0  0  0  0  0
   23.8250    6.6740   15.1880 H   0  0  0  0  0  0  0  0  0  0  0  0
   21.2076   11.7846   18.2239 H   0  0  0  0  0  0  0  0  0  0  0  0
   22.2053   11.7287   16.7312 H   0  0  0  0  0  0  0  0  0  0  0  0
   20.5493   11.0328   16.7312 H   0  0  0  0  0  0  0  0  0  0  0  0
   21.5777    9.8570   20.4567 H   0  0  0  0  0  0  0  0  0  0  0  0
   22.8400    9.2930   22.9160 H   0  0  0  0  0  0  0  0  0  0  0  0
   21.6785   12.9304   25.2727 H   0  0  0  0  0  0  0  0  0  0  0  0
   20.4530   12.2131   27.3366 H   0  0  0  0  0  0  0  0  0  0  0  0
   20.9073    8.1410   26.1160 H   0  0  0  0  0  0  0  0  0  0  0  0
   25.5913   10.5951   21.8101 H   0  0  0  0  0  0  0  0  0  0  0  0
   26.3424   10.6408   19.4334 H   0  0  0  0  0  0  0  0  0  0  0  0
   20.3357    9.3800   18.9981 H   0  0  0  0  0  0  0  0  0  0  0  0
   20.1657    8.9108   17.2630 H   0  0  0  0  0  0  0  0  0  0  0  0
  1  2  1  0
  2  3  1  0
  3  4  1  0
  3  5  2  0
  5  6  1  0
  6  7  1  6
  6  8  1  0
  8  9  2  0
  9 10  1  0
 10 11  1  0
 11 12  1  0
 12 13  2  0
 12 14  1  0
 14 15  2  0
 15 16  1  0
 16 17  2  0
 17 18  1  0
 17 19  1  0
 19 20  2  0
 10 21  2  0
 21 22  1  0
 22 23  2  0
 23 24  1  0
  6 25  1  0
 25 26  1  0
 26 27  2  0
 26 28  2  0
 26  2  1  0
 23  8  1  0
 20 14  1  0
  1 29  1  0
  1 30  1  0
  1 31  1  0
  4 32  1  0
  4 33  1  0
  7 34  1  0
  7 35  1  0
  7 36  1  0
  9 37  1  0
 11 38  1  0
 15 39  1  0
 16 40  1  0
 19 41  1  0
 21 42  1  0
 22 43  1  0
 25 44  1  0
 25 45  1  0
M  END
>  <meeko>  (8)
{"is_sidechain": false}

>  <source_group>  (8)
BACE1-457

>  <source_system>  (8)
BACE1_verubecestat

>  <source_run>  (8)
alternate_457_seed5519_ex32

>  <source_seed>  (8)
5519

>  <vina_pose_rank>  (8)
8

>  <vina_affinity_kcal_mol>  (8)
-7.2240000000000002

>  <vina_rmsd_to_crystal_angstrom>  (8)
7.0164

$$$$
BACE1_verubecestat__alternate_457_seed5519_ex32__pose09
     RDKit          3D

 45 47  0  0  0  0  0  0  0  0999 V2000
   28.7080    8.1190   15.4090 C   0  0  0  0  0  0  0  0  0  0  0  0
   27.4500    7.8850   14.6720 N   0  0  0  0  0  0  0  0  0  0  0  0
   26.6250    8.9330   14.2070 C   0  0  0  0  0  0  0  0  0  0  0  0
   27.1680   10.1800   14.3640 N   0  0  0  0  0  0  0  0  0  0  0  0
   25.4660    8.7470   13.6550 N   0  0  0  0  0  0  0  0  0  0  0  0
   24.8550    7.4210   13.5790 C   0  0  2  0  0  0  0  0  0  0  0  0
   23.7990    7.5920   12.4830 C   0  0  0  0  0  0  0  0  0  0  0  0
   24.1590    7.0380   14.8760 C   0  0  0  0  0  0  0  0  0  0  0  0
   23.9920    7.9640   15.9040 C   0  0  0  0  0  0  0  0  0  0  0  0
   23.3690    7.6450   17.0890 C   0  0  0  0  0  0  0  0  0  0  0  0
   23.2640    8.6690   18.0390 N   0  0  0  0  0  0  0  0  0  0  0  0
   22.1540    9.4310   18.3590 C   0  0  0  0  0  0  0  0  0  0  0  0
   21.0910    9.4150   17.7530 O   0  0  0  0  0  0  0  0  0  0  0  0
   22.3020   10.2930   19.5560 C   0  0  0  0  0  0  0  0  0  0  0  0
   22.3730    9.7210   20.8150 C   0  0  0  0  0  0  0  0  0  0  0  0
   22.5090   10.5730   21.8970 C   0  0  0  0  0  0  0  0  0  0  0  0
   22.5710   11.9380   21.6950 C   0  0  0  0  0  0  0  0  0  0  0  0
   22.6930   12.8040   22.7160 F   0  0  0  0  0  0  0  0  0  0  0  0
   22.4860   12.4120   20.4060 C   0  0  0  0  0  0  0  0  0  0  0  0
   22.3480   11.6110   19.3360 N   0  0  0  0  0  0  0  0  0  0  0  0
   22.8570    6.3700   17.2930 C   0  0  0  0  0  0  0  0  0  0  0  0
   23.0160    5.4360   16.2840 C   0  0  0  0  0  0  0  0  0  0  0  0
   23.6720    5.7620   15.1130 C   0  0  0  0  0  0  0  0  0  0  0  0
   23.8410    4.8190   14.1510 F   0  0  0  0  0  0  0  0  0  0  0  0
   25.8620    6.4140   13.0700 C   0  0  0  0  0  0  0  0  0  0  0  0
   27.2100    6.2440   14.2120 S   0  0  0  0  0  0  0  0  0  0  0  0
   28.3660    5.8430   13.4310 O   0  0  0  0  0  0  0  0  0  0  0  0
   26.7980    5.6060   15.4230 O   0  0  0  0  0  0  0  0  0  0  0  0
   28.5115    8.0824   16.4907 H   0  0  0  0  0  0  0  0  0  0  0  0
   29.4391    7.3414   15.1427 H   0  0  0  0  0  0  0  0  0  0  0  0
   29.1106    9.1074   15.1427 H   0  0  0  0  0  0  0  0  0  0  0  0
   26.6680   10.9750   14.0690 H   0  0  0  0  0  0  0  0  0  0  0  0
   28.0590   10.2810   14.7710 H   0  0  0  0  0  0  0  0  0  0  0  0
   22.8136    7.7516   12.9450 H   0  0  0  0  0  0  0  0  0  0  0  0
   24.0561    8.4602   11.8584 H   0  0  0  0  0  0  0  0  0  0  0  0
   23.7689    6.6870   11.8584 H   0  0  0  0  0  0  0  0  0  0  0  0
   24.3718    8.9867   15.7632 H   0  0  0  0  0  0  0  0  0  0  0  0
   24.0840    8.8720   18.5440 H   0  0  0  0  0  0  0  0  0  0  0  0
   22.3232    8.6305   20.9500 H   0  0  0  0  0  0  0  0  0  0  0  0
   22.5676   10.1638   22.9164 H   0  0  0  0  0  0  0  0  0  0  0  0
   22.5333   13.4989   20.2437 H   0  0  0  0  0  0  0  0  0  0  0  0
   22.3404    6.1103   18.2288 H   0  0  0  0  0  0  0  0  0  0  0  0
   22.6146    4.4205   16.4164 H   0  0  0  0  0  0  0  0  0  0  0  0
   25.3675    5.4391   12.9471 H   0  0  0  0  0  0  0  0  0  0  0  0
   26.2573    6.7652   12.1055 H   0  0  0  0  0  0  0  0  0  0  0  0
  1  2  1  0
  2  3  1  0
  3  4  1  0
  3  5  2  0
  5  6  1  0
  6  7  1  6
  6  8  1  0
  8  9  2  0
  9 10  1  0
 10 11  1  0
 11 12  1  0
 12 13  2  0
 12 14  1  0
 14 15  2  0
 15 16  1  0
 16 17  2  0
 17 18  1  0
 17 19  1  0
 19 20  2  0
 10 21  2  0
 21 22  1  0
 22 23  2  0
 23 24  1  0
  6 25  1  0
 25 26  1  0
 26 27  2  0
 26 28  2  0
 26  2  1  0
 23  8  1  0
 20 14  1  0
  1 29  1  0
  1 30  1  0
  1 31  1  0
  4 32  1  0
  4 33  1  0
  7 34  1  0
  7 35  1  0
  7 36  1  0
  9 37  1  0
 11 38  1  0
 15 39  1  0
 16 40  1  0
 19 41  1  0
 21 42  1  0
 22 43  1  0
 25 44  1  0
 25 45  1  0
M  END
>  <meeko>  (9)
{"is_sidechain": false}

>  <source_group>  (9)
BACE1-457

>  <source_system>  (9)
BACE1_verubecestat

>  <source_run>  (9)
alternate_457_seed5519_ex32

>  <source_seed>  (9)
5519

>  <vina_pose_rank>  (9)
9

>  <vina_affinity_kcal_mol>  (9)
-7.2190000000000003

>  <vina_rmsd_to_crystal_angstrom>  (9)
9.0137

$$$$
BACE1_verubecestat__alternate_457_seed5519_ex32__pose10
     RDKit          3D

 45 47  0  0  0  0  0  0  0  0999 V2000
   28.5460   16.0330   22.6820 C   0  0  0  0  0  0  0  0  0  0  0  0
   28.3490   14.6590   22.1800 N   0  0  0  0  0  0  0  0  0  0  0  0
   28.6290   14.2780   20.8490 C   0  0  0  0  0  0  0  0  0  0  0  0
   29.2400   15.2540   20.1090 N   0  0  0  0  0  0  0  0  0  0  0  0
   28.3600   13.1050   20.3630 N   0  0  0  0  0  0  0  0  0  0  0  0
   27.6220   12.1050   21.1320 C   0  0  2  0  0  0  0  0  0  0  0  0
   27.9510   10.8000   20.4020 C   0  0  0  0  0  0  0  0  0  0  0  0
   26.1200   12.3340   21.0740 C   0  0  0  0  0  0  0  0  0  0  0  0
   25.2910   11.9420   22.1240 C   0  0  0  0  0  0  0  0  0  0  0  0
   23.9280   12.1340   22.0970 C   0  0  0  0  0  0  0  0  0  0  0  0
   23.2110   11.6960   23.2180 N   0  0  0  0  0  0  0  0  0  0  0  0
   22.5620   12.4590   24.1730 C   0  0  0  0  0  0  0  0  0  0  0  0
   22.6230   13.6780   24.2600 O   0  0  0  0  0  0  0  0  0  0  0  0
   21.7110   11.6980   25.1200 C   0  0  0  0  0  0  0  0  0  0  0  0
   21.8290   10.3220   25.2030 C   0  0  0  0  0  0  0  0  0  0  0  0
   21.0100    9.6630   26.1020 C   0  0  0  0  0  0  0  0  0  0  0  0
   20.1200   10.3820   26.8760 C   0  0  0  0  0  0  0  0  0  0  0  0
   19.2980    9.7850   27.7560 F   0  0  0  0  0  0  0  0  0  0  0  0
   20.0720   11.7480   26.7180 C   0  0  0  0  0  0  0  0  0  0  0  0
   20.8500   12.4150   25.8500 N   0  0  0  0  0  0  0  0  0  0  0  0
   23.3270   12.7590   21.0120 C   0  0  0  0  0  0  0  0  0  0  0  0
   24.1340   13.1520   19.9590 C   0  0  0  0  0  0  0  0  0  0  0  0
   25.4960   12.9230   19.9850 C   0  0  0  0  0  0  0  0  0  0  0  0
   26.2620   13.2930   18.9270 F   0  0  0  0  0  0  0  0  0  0  0  0
   28.2000   11.9920   22.5250 C   0  0  0  0  0  0  0  0  0  0  0  0
   27.9940   13.5130   23.4160 S   0  0  0  0  0  0  0  0  0  0  0  0
   29.0740   13.5760   24.3840 O   0  0  0  0  0  0  0  0  0  0  0  0
   26.6210   13.7600   23.7270 O   0  0  0  0  0  0  0  0  0  0  0  0
   28.5449   16.0252   23.7820 H   0  0  0  0  0  0  0  0  0  0  0  0
   29.5090   16.4214   22.3191 H   0  0  0  0  0  0  0  0  0  0  0  0
   27.7309   16.6764   22.3191 H   0  0  0  0  0  0  0  0  0  0  0  0
   29.4760   15.0830   19.1680 H   0  0  0  0  0  0  0  0  0  0  0  0
   29.4450   16.1260   20.5170 H   0  0  0  0  0  0  0  0  0  0  0  0
   28.1507   10.0080   21.1388 H   0  0  0  0  0  0  0  0  0  0  0  0
   27.0985   10.5076   19.7714 H   0  0  0  0  0  0  0  0  0  0  0  0
   28.8402   10.9468   19.7714 H   0  0  0  0  0  0  0  0  0  0  0  0
   25.7419   11.4623   23.0053 H   0  0  0  0  0  0  0  0  0  0  0  0
   23.1610   10.7200   23.3410 H   0  0  0  0  0  0  0  0  0  0  0  0
   22.5476    9.7724   24.5772 H   0  0  0  0  0  0  0  0  0  0  0  0
   21.0673    8.5689   26.2004 H   0  0  0  0  0  0  0  0  0  0  0  0
   19.3621   12.3214   27.3323 H   0  0  0  0  0  0  0  0  0  0  0  0
   22.2416   12.9363   20.9905 H   0  0  0  0  0  0  0  0  0  0  0  0
   23.6848   13.6537   19.0892 H   0  0  0  0  0  0  0  0  0  0  0  0
   27.6843   11.1845   23.0653 H   0  0  0  0  0  0  0  0  0  0  0  0
   29.2749   11.7724   22.4448 H   0  0  0  0  0  0  0  0  0  0  0  0
  1  2  1  0
  2  3  1  0
  3  4  1  0
  3  5  2  0
  5  6  1  0
  6  7  1  6
  6  8  1  0
  8  9  2  0
  9 10  1  0
 10 11  1  0
 11 12  1  0
 12 13  2  0
 12 14  1  0
 14 15  2  0
 15 16  1  0
 16 17  2  0
 17 18  1  0
 17 19  1  0
 19 20  2  0
 10 21  2  0
 21 22  1  0
 22 23  2  0
 23 24  1  0
  6 25  1  0
 25 26  1  0
 26 27  2  0
 26 28  2  0
 26  2  1  0
 23  8  1  0
 20 14  1  0
  1 29  1  0
  1 30  1  0
  1 31  1  0
  4 32  1  0
  4 33  1  0
  7 34  1  0
  7 35  1  0
  7 36  1  0
  9 37  1  0
 11 38  1  0
 15 39  1  0
 16 40  1  0
 19 41  1  0
 21 42  1  0
 22 43  1  0
 25 44  1  0
 25 45  1  0
M  END
>  <meeko>  (10)
{"is_sidechain": false}

>  <source_group>  (10)
BACE1-457

>  <source_system>  (10)
BACE1_verubecestat

>  <source_run>  (10)
alternate_457_seed5519_ex32

>  <source_seed>  (10)
5519

>  <vina_pose_rank>  (10)
10

>  <vina_affinity_kcal_mol>  (10)
-7.181

>  <vina_rmsd_to_crystal_angstrom>  (10)
7.5487000000000002

$$$$
BACE1_verubecestat__alternate_457_seed5519_ex32__pose11
     RDKit          3D

 45 47  0  0  0  0  0  0  0  0999 V2000
   24.8130   11.5470   16.3530 C   0  0  0  0  0  0  0  0  0  0  0  0
   23.6220   10.7150   16.0930 N   0  0  0  0  0  0  0  0  0  0  0  0
   22.3030   11.1620   16.3320 C   0  0  0  0  0  0  0  0  0  0  0  0
   22.2190   12.4830   16.6800 N   0  0  0  0  0  0  0  0  0  0  0  0
   21.2530   10.4090   16.2130 N   0  0  0  0  0  0  0  0  0  0  0  0
   21.3620    8.9780   15.9350 C   0  0  2  0  0  0  0  0  0  0  0  0
   19.9640    8.6210   15.4220 C   0  0  0  0  0  0  0  0  0  0  0  0
   21.6430    8.1710   17.1930 C   0  0  0  0  0  0  0  0  0  0  0  0
   21.8650    8.8010   18.4170 C   0  0  0  0  0  0  0  0  0  0  0  0
   22.1250    8.0970   19.5710 C   0  0  0  0  0  0  0  0  0  0  0  0
   22.3270    8.8510   20.7340 N   0  0  0  0  0  0  0  0  0  0  0  0
   23.2680    9.8400   20.9620 C   0  0  0  0  0  0  0  0  0  0  0  0
   24.1810   10.1320   20.2010 O   0  0  0  0  0  0  0  0  0  0  0  0
   23.0940   10.6010   22.2230 C   0  0  0  0  0  0  0  0  0  0  0  0
   22.7360   11.9370   22.1800 C   0  0  0  0  0  0  0  0  0  0  0  0
   22.5900   12.5990   23.3860 C   0  0  0  0  0  0  0  0  0  0  0  0
   22.7960   11.9210   24.5720 C   0  0  0  0  0  0  0  0  0  0  0  0
   22.6740   12.5240   25.7670 F   0  0  0  0  0  0  0  0  0  0  0  0
   23.1550   10.5940   24.5120 C   0  0  0  0  0  0  0  0  0  0  0  0
   23.3100    9.9260   23.3570 N   0  0  0  0  0  0  0  0  0  0  0  0
   22.1520    6.7080   19.5560 C   0  0  0  0  0  0  0  0  0  0  0  0
   21.9370    6.0660   18.3490 C   0  0  0  0  0  0  0  0  0  0  0  0
   21.7100    6.7870   17.1930 C   0  0  0  0  0  0  0  0  0  0  0  0
   21.5310    6.1340   16.0170 F   0  0  0  0  0  0  0  0  0  0  0  0
   22.3260    8.7420   14.7940 C   0  0  0  0  0  0  0  0  0  0  0  0
   23.9650    9.2580   15.2410 S   0  0  0  0  0  0  0  0  0  0  0  0
   24.6340    9.6290   14.0070 O   0  0  0  0  0  0  0  0  0  0  0  0
   24.5330    8.4050   16.2380 O   0  0  0  0  0  0  0  0  0  0  0  0
   24.9591   11.6491   17.4385 H   0  0  0  0  0  0  0  0  0  0  0  0
   25.6981   11.0697   15.9072 H   0  0  0  0  0  0  0  0  0  0  0  0
   24.6694   12.5423   15.9072 H   0  0  0  0  0  0  0  0  0  0  0  0
   21.3420   12.8880   16.8660 H   0  0  0  0  0  0  0  0  0  0  0  0
   23.0370   13.0290   16.7420 H   0  0  0  0  0  0  0  0  0  0  0  0
   19.2926    8.4496   16.2763 H   0  0  0  0  0  0  0  0  0  0  0  0
   19.5753    9.4487   14.8106 H   0  0  0  0  0  0  0  0  0  0  0  0
   20.0198    7.7083   14.8106 H   0  0  0  0  0  0  0  0  0  0  0  0
   21.8312    9.8996   18.4620 H   0  0  0  0  0  0  0  0  0  0  0  0
   21.7230    8.6510   21.4860 H   0  0  0  0  0  0  0  0  0  0  0  0
   22.5735   12.4535   21.2225 H   0  0  0  0  0  0  0  0  0  0  0  0
   22.3105   13.6628   23.4006 H   0  0  0  0  0  0  0  0  0  0  0  0
   23.3232   10.0541   25.4555 H   0  0  0  0  0  0  0  0  0  0  0  0
   22.3388    6.1354   20.4765 H   0  0  0  0  0  0  0  0  0  0  0  0
   21.9470    4.9667   18.3097 H   0  0  0  0  0  0  0  0  0  0  0  0
   22.3393    7.6699   14.5483 H   0  0  0  0  0  0  0  0  0  0  0  0
   21.9952    9.3286   13.9242 H   0  0  0  0  0  0  0  0  0  0  0  0
  1  2  1  0
  2  3  1  0
  3  4  1  0
  3  5  2  0
  5  6  1  0
  6  7  1  6
  6  8  1  0
  8  9  2  0
  9 10  1  0
 10 11  1  0
 11 12  1  0
 12 13  2  0
 12 14  1  0
 14 15  2  0
 15 16  1  0
 16 17  2  0
 17 18  1  0
 17 19  1  0
 19 20  2  0
 10 21  2  0
 21 22  1  0
 22 23  2  0
 23 24  1  0
  6 25  1  0
 25 26  1  0
 26 27  2  0
 26 28  2  0
 26  2  1  0
 23  8  1  0
 20 14  1  0
  1 29  1  0
  1 30  1  0
  1 31  1  0
  4 32  1  0
  4 33  1  0
  7 34  1  0
  7 35  1  0
  7 36  1  0
  9 37  1  0
 11 38  1  0
 15 39  1  0
 16 40  1  0
 19 41  1  0
 21 42  1  0
 22 43  1  0
 25 44  1  0
 25 45  1  0
M  END
>  <meeko>  (11)
{"is_sidechain": false}

>  <source_group>  (11)
BACE1-457

>  <source_system>  (11)
BACE1_verubecestat

>  <source_run>  (11)
alternate_457_seed5519_ex32

>  <source_seed>  (11)
5519

>  <vina_pose_rank>  (11)
11

>  <vina_affinity_kcal_mol>  (11)
-7.165

>  <vina_rmsd_to_crystal_angstrom>  (11)
6.9825999999999997

$$$$
BACE1_verubecestat__alternate_457_seed5519_ex32__pose12
     RDKit          3D

 45 47  0  0  0  0  0  0  0  0999 V2000
   22.6740    4.4560   17.5610 C   0  0  0  0  0  0  0  0  0  0  0  0
   22.1640    5.8070   17.2540 N   0  0  0  0  0  0  0  0  0  0  0  0
   22.2340    6.3820   15.9650 C   0  0  0  0  0  0  0  0  0  0  0  0
   22.6750    5.5210   14.9960 N   0  0  0  0  0  0  0  0  0  0  0  0
   21.8910    7.6050   15.7000 N   0  0  0  0  0  0  0  0  0  0  0  0
   21.5120    8.5420   16.7570 C   0  0  2  0  0  0  0  0  0  0  0  0
   20.7600    9.6350   15.9920 C   0  0  0  0  0  0  0  0  0  0  0  0
   22.7250    9.1610   17.4330 C   0  0  0  0  0  0  0  0  0  0  0  0
   22.6740    9.5780   18.7620 C   0  0  0  0  0  0  0  0  0  0  0  0
   23.7550   10.1440   19.3980 C   0  0  0  0  0  0  0  0  0  0  0  0
   23.5720   10.5170   20.7360 N   0  0  0  0  0  0  0  0  0  0  0  0
   22.8560   11.5900   21.2360 C   0  0  0  0  0  0  0  0  0  0  0  0
   22.3600   12.4820   20.5610 O   0  0  0  0  0  0  0  0  0  0  0  0
   22.6720   11.5980   22.7080 C   0  0  0  0  0  0  0  0  0  0  0  0
   22.6900   12.7960   23.4000 C   0  0  0  0  0  0  0  0  0  0  0  0
   22.5160   12.7450   24.7720 C   0  0  0  0  0  0  0  0  0  0  0  0
   22.3280   11.5270   25.3960 C   0  0  0  0  0  0  0  0  0  0  0  0
   22.1640   11.4260   26.7270 F   0  0  0  0  0  0  0  0  0  0  0  0
   22.3320   10.3880   24.6230 C   0  0  0  0  0  0  0  0  0  0  0  0
   22.5040   10.4060   23.2910 N   0  0  0  0  0  0  0  0  0  0  0  0
   24.9630   10.3000   18.7290 C   0  0  0  0  0  0  0  0  0  0  0  0
   25.0310    9.8950   17.4080 C   0  0  0  0  0  0  0  0  0  0  0  0
   23.9280    9.3580   16.7730 C   0  0  0  0  0  0  0  0  0  0  0  0
   24.0130    8.9960   15.4670 F   0  0  0  0  0  0  0  0  0  0  0  0
   20.5170    7.8930   17.6940 C   0  0  0  0  0  0  0  0  0  0  0  0
   21.2540    6.5140   18.5330 S   0  0  0  0  0  0  0  0  0  0  0  0
   20.1740    5.5970   18.8500 O   0  0  0  0  0  0  0  0  0  0  0  0
   22.2500    6.9360   19.4680 O   0  0  0  0  0  0  0  0  0  0  0  0
   22.7245    4.3222   18.6517 H   0  0  0  0  0  0  0  0  0  0  0  0
   21.9985    3.7024   17.1300 H   0  0  0  0  0  0  0  0  0  0  0  0
   23.6790    4.3368   17.1300 H   0  0  0  0  0  0  0  0  0  0  0  0
   22.7580    5.8290   14.0650 H   0  0  0  0  0  0  0  0  0  0  0  0
   22.9100    4.5940   15.2310 H   0  0  0  0  0  0  0  0  0  0  0  0
   20.2863   10.3235   16.7073 H   0  0  0  0  0  0  0  0  0  0  0  0
   21.4667   10.1924   15.3596 H   0  0  0  0  0  0  0  0  0  0  0  0
   19.9868    9.1742   15.3596 H   0  0  0  0  0  0  0  0  0  0  0  0
   21.7361    9.4501   19.3224 H   0  0  0  0  0  0  0  0  0  0  0  0
   24.0080    9.9420   21.4060 H   0  0  0  0  0  0  0  0  0  0  0  0
   22.8372   13.7535   22.8789 H   0  0  0  0  0  0  0  0  0  0  0  0
   22.5274   13.6720   25.3641 H   0  0  0  0  0  0  0  0  0  0  0  0
   22.1875    9.4172   25.1196 H   0  0  0  0  0  0  0  0  0  0  0  0
   25.8389   10.7326   19.2347 H   0  0  0  0  0  0  0  0  0  0  0  0
   25.9763   10.0020   16.8557 H   0  0  0  0  0  0  0  0  0  0  0  0
   20.1853    8.6328   18.4374 H   0  0  0  0  0  0  0  0  0  0  0  0
   19.6601    7.5327   17.1059 H   0  0  0  0  0  0  0  0  0  0  0  0
  1  2  1  0
  2  3  1  0
  3  4  1  0
  3  5  2  0
  5  6  1  0
  6  7  1  6
  6  8  1  0
  8  9  2  0
  9 10  1  0
 10 11  1  0
 11 12  1  0
 12 13  2  0
 12 14  1  0
 14 15  2  0
 15 16  1  0
 16 17  2  0
 17 18  1  0
 17 19  1  0
 19 20  2  0
 10 21  2  0
 21 22  1  0
 22 23  2  0
 23 24  1  0
  6 25  1  0
 25 26  1  0
 26 27  2  0
 26 28  2  0
 26  2  1  0
 23  8  1  0
 20 14  1  0
  1 29  1  0
  1 30  1  0
  1 31  1  0
  4 32  1  0
  4 33  1  0
  7 34  1  0
  7 35  1  0
  7 36  1  0
  9 37  1  0
 11 38  1  0
 15 39  1  0
 16 40  1  0
 19 41  1  0
 21 42  1  0
 22 43  1  0
 25 44  1  0
 25 45  1  0
M  END
>  <meeko>  (12)
{"is_sidechain": false}

>  <source_group>  (12)
BACE1-457

>  <source_system>  (12)
BACE1_verubecestat

>  <source_run>  (12)
alternate_457_seed5519_ex32

>  <source_seed>  (12)
5519

>  <vina_pose_rank>  (12)
12

>  <vina_affinity_kcal_mol>  (12)
-7.0869999999999997

>  <vina_rmsd_to_crystal_angstrom>  (12)
6.7923

$$$$
BACE1_verubecestat__alternate_457_seed5519_ex32__pose13
     RDKit          3D

 45 47  0  0  0  0  0  0  0  0999 V2000
   28.1370   13.2010   22.4980 C   0  0  0  0  0  0  0  0  0  0  0  0
   26.9550   13.3270   21.6220 N   0  0  0  0  0  0  0  0  0  0  0  0
   26.0440   14.4030   21.7070 C   0  0  0  0  0  0  0  0  0  0  0  0
   26.4340   15.3940   22.5670 N   0  0  0  0  0  0  0  0  0  0  0  0
   24.9450   14.4740   21.0220 N   0  0  0  0  0  0  0  0  0  0  0  0
   24.4920   13.3680   20.1800 C   0  0  2  0  0  0  0  0  0  0  0  0
   23.4850   14.0400   19.2420 C   0  0  0  0  0  0  0  0  0  0  0  0
   23.7740   12.2950   20.9830 C   0  0  0  0  0  0  0  0  0  0  0  0
   23.5680   11.0190   20.4600 C   0  0  0  0  0  0  0  0  0  0  0  0
   22.9190   10.0300   21.1630 C   0  0  0  0  0  0  0  0  0  0  0  0
   22.7800    8.7920   20.5230 N   0  0  0  0  0  0  0  0  0  0  0  0
   21.9940    8.4760   19.4290 C   0  0  0  0  0  0  0  0  0  0  0  0
   21.1730    9.2230   18.9130 O   0  0  0  0  0  0  0  0  0  0  0  0
   22.2230    7.1290   18.8520 C   0  0  0  0  0  0  0  0  0  0  0  0
   22.6850    7.0030   17.5540 C   0  0  0  0  0  0  0  0  0  0  0  0
   22.8800    5.7230   17.0660 C   0  0  0  0  0  0  0  0  0  0  0  0
   22.6170    4.6320   17.8710 C   0  0  0  0  0  0  0  0  0  0  0  0
   22.7820    3.3710   17.4380 F   0  0  0  0  0  0  0  0  0  0  0  0
   22.1540    4.8590   19.1480 C   0  0  0  0  0  0  0  0  0  0  0  0
   21.9500    6.0890   19.6470 N   0  0  0  0  0  0  0  0  0  0  0  0
   22.4590   10.2700   22.4520 C   0  0  0  0  0  0  0  0  0  0  0  0
   22.6520   11.5320   22.9870 C   0  0  0  0  0  0  0  0  0  0  0  0
   23.2760   12.5240   22.2570 C   0  0  0  0  0  0  0  0  0  0  0  0
   23.4260   13.7620   22.7940 F   0  0  0  0  0  0  0  0  0  0  0  0
   25.6320   12.8690   19.3200 C   0  0  0  0  0  0  0  0  0  0  0  0
   26.9270   12.1910   20.3280 S   0  0  0  0  0  0  0  0  0  0  0  0
   28.1620   12.3570   19.5830 O   0  0  0  0  0  0  0  0  0  0  0  0
   26.5240   10.9700   20.9540 O   0  0  0  0  0  0  0  0  0  0  0  0
   27.8187   13.2349   23.5504 H   0  0  0  0  0  0  0  0  0  0  0  0
   28.6412   12.2440   22.2981 H   0  0  0  0  0  0  0  0  0  0  0  0
   28.8316   14.0302   22.2981 H   0  0  0  0  0  0  0  0  0  0  0  0
   25.8640   16.1870   22.6950 H   0  0  0  0  0  0  0  0  0  0  0  0
   27.2840   15.3150   23.0570 H   0  0  0  0  0  0  0  0  0  0  0  0
   22.7156   14.5535   19.8372 H   0  0  0  0  0  0  0  0  0  0  0  0
   24.0066   14.7717   18.6075 H   0  0  0  0  0  0  0  0  0  0  0  0
   23.0095   13.2775   18.6075 H   0  0  0  0  0  0  0  0  0  0  0  0
   23.9378   10.7948   19.4486 H   0  0  0  0  0  0  0  0  0  0  0  0
   23.3110    8.0530   20.8990 H   0  0  0  0  0  0  0  0  0  0  0  0
   22.8897    7.8876   16.9330 H   0  0  0  0  0  0  0  0  0  0  0  0
   23.2439    5.5746   16.0386 H   0  0  0  0  0  0  0  0  0  0  0  0
   21.9411    3.9914   19.7899 H   0  0  0  0  0  0  0  0  0  0  0  0
   21.9564    9.4806   23.0301 H   0  0  0  0  0  0  0  0  0  0  0  0
   22.3034   11.7475   24.0078 H   0  0  0  0  0  0  0  0  0  0  0  0
   25.2574   12.0893   18.6404 H   0  0  0  0  0  0  0  0  0  0  0  0
   26.0372   13.7141   18.7441 H   0  0  0  0  0  0  0  0  0  0  0  0
  1  2  1  0
  2  3  1  0
  3  4  1  0
  3  5  2  0
  5  6  1  0
  6  7  1  6
  6  8  1  0
  8  9  2  0
  9 10  1  0
 10 11  1  0
 11 12  1  0
 12 13  2  0
 12 14  1  0
 14 15  2  0
 15 16  1  0
 16 17  2  0
 17 18  1  0
 17 19  1  0
 19 20  2  0
 10 21  2  0
 21 22  1  0
 22 23  2  0
 23 24  1  0
  6 25  1  0
 25 26  1  0
 26 27  2  0
 26 28  2  0
 26  2  1  0
 23  8  1  0
 20 14  1  0
  1 29  1  0
  1 30  1  0
  1 31  1  0
  4 32  1  0
  4 33  1  0
  7 34  1  0
  7 35  1  0
  7 36  1  0
  9 37  1  0
 11 38  1  0
 15 39  1  0
 16 40  1  0
 19 41  1  0
 21 42  1  0
 22 43  1  0
 25 44  1  0
 25 45  1  0
M  END
>  <meeko>  (13)
{"is_sidechain": false}

>  <source_group>  (13)
BACE1-457

>  <source_system>  (13)
BACE1_verubecestat

>  <source_run>  (13)
alternate_457_seed5519_ex32

>  <source_seed>  (13)
5519

>  <vina_pose_rank>  (13)
13

>  <vina_affinity_kcal_mol>  (13)
-6.9379999999999997

>  <vina_rmsd_to_crystal_angstrom>  (13)
6.7233999999999998

$$$$
BACE1_verubecestat__alternate_457_seed5519_ex32__pose14
     RDKit          3D

 45 47  0  0  0  0  0  0  0  0999 V2000
   27.6880   12.1720   19.0510 C   0  0  0  0  0  0  0  0  0  0  0  0
   26.4400   12.3470   19.8200 N   0  0  0  0  0  0  0  0  0  0  0  0
   26.0370   11.4610   20.8440 C   0  0  0  0  0  0  0  0  0  0  0  0
   26.9750   10.5160   21.1630 N   0  0  0  0  0  0  0  0  0  0  0  0
   24.8950   11.5370   21.4550 N   0  0  0  0  0  0  0  0  0  0  0  0
   23.8640   12.4880   21.0420 C   0  0  2  0  0  0  0  0  0  0  0  0
   22.9530   12.5610   22.2700 C   0  0  0  0  0  0  0  0  0  0  0  0
   23.0560   11.9770   19.8600 C   0  0  0  0  0  0  0  0  0  0  0  0
   23.2880   10.7110   19.3230 C   0  0  0  0  0  0  0  0  0  0  0  0
   22.5730   10.2230   18.2520 C   0  0  0  0  0  0  0  0  0  0  0  0
   22.9040    8.9350   17.8120 N   0  0  0  0  0  0  0  0  0  0  0  0
   22.4040    7.7230   18.2550 C   0  0  0  0  0  0  0  0  0  0  0  0
   21.6650    7.5770   19.2190 O   0  0  0  0  0  0  0  0  0  0  0  0
   22.7950    6.5430   17.4450 C   0  0  0  0  0  0  0  0  0  0  0  0
   22.5190    5.2680   17.9060 C   0  0  0  0  0  0  0  0  0  0  0  0
   22.9070    4.2030   17.1120 C   0  0  0  0  0  0  0  0  0  0  0  0
   23.5410    4.4390   15.9070 C   0  0  0  0  0  0  0  0  0  0  0  0
   23.9440    3.4380   15.1070 F   0  0  0  0  0  0  0  0  0  0  0  0
   23.7770    5.7440   15.5380 C   0  0  0  0  0  0  0  0  0  0  0  0
   23.4170    6.7970   16.2900 N   0  0  0  0  0  0  0  0  0  0  0  0
   21.5640   10.9840   17.6750 C   0  0  0  0  0  0  0  0  0  0  0  0
   21.3220   12.2440   18.1930 C   0  0  0  0  0  0  0  0  0  0  0  0
   22.0690   12.7330   19.2470 C   0  0  0  0  0  0  0  0  0  0  0  0
   21.8310   13.9840   19.7170 F   0  0  0  0  0  0  0  0  0  0  0  0
   24.4700   13.8620   20.8570 C   0  0  0  0  0  0  0  0  0  0  0  0
   25.6560   13.8520   19.5360 S   0  0  0  0  0  0  0  0  0  0  0  0
   26.6160   14.9000   19.8340 O   0  0  0  0  0  0  0  0  0  0  0  0
   25.0270   13.6760   18.2640 O   0  0  0  0  0  0  0  0  0  0  0  0
   28.5329   12.0535   19.7453 H   0  0  0  0  0  0  0  0  0  0  0  0
   27.6058   11.2766   18.4174 H   0  0  0  0  0  0  0  0  0  0  0  0
   27.8552   13.0555   18.4174 H   0  0  0  0  0  0  0  0  0  0  0  0
   26.7860    9.8530   21.8660 H   0  0  0  0  0  0  0  0  0  0  0  0
   27.8380   10.5000   20.6910 H   0  0  0  0  0  0  0  0  0  0  0  0
   23.5641   12.5120   23.1833 H   0  0  0  0  0  0  0  0  0  0  0  0
   22.3919   13.5070   22.2546 H   0  0  0  0  0  0  0  0  0  0  0  0
   22.2484   11.7164   22.2546 H   0  0  0  0  0  0  0  0  0  0  0  0
   24.0698   10.0799   19.7708 H   0  0  0  0  0  0  0  0  0  0  0  0
   23.5770    8.8860   17.0950 H   0  0  0  0  0  0  0  0  0  0  0  0
   22.0101    5.1068   18.8678 H   0  0  0  0  0  0  0  0  0  0  0  0
   22.7112    3.1712   17.4392 H   0  0  0  0  0  0  0  0  0  0  0  0
   24.2850    5.9336   14.5809 H   0  0  0  0  0  0  0  0  0  0  0  0
   20.9747   10.5962   16.8310 H   0  0  0  0  0  0  0  0  0  0  0  0
   20.5239   12.8647   17.7596 H   0  0  0  0  0  0  0  0  0  0  0  0
   23.6712   14.5800   20.6197 H   0  0  0  0  0  0  0  0  0  0  0  0
   24.9796   14.1520   21.7877 H   0  0  0  0  0  0  0  0  0  0  0  0
  1  2  1  0
  2  3  1  0
  3  4  1  0
  3  5  2  0
  5  6  1  0
  6  7  1  1
  6  8  1  0
  8  9  2  0
  9 10  1  0
 10 11  1  0
 11 12  1  0
 12 13  2  0
 12 14  1  0
 14 15  2  0
 15 16  1  0
 16 17  2  0
 17 18  1  0
 17 19  1  0
 19 20  2  0
 10 21  2  0
 21 22  1  0
 22 23  2  0
 23 24  1  0
  6 25  1  0
 25 26  1  0
 26 27  2  0
 26 28  2  0
 26  2  1  0
 23  8  1  0
 20 14  1  0
  1 29  1  0
  1 30  1  0
  1 31  1  0
  4 32  1  0
  4 33  1  0
  7 34  1  0
  7 35  1  0
  7 36  1  0
  9 37  1  0
 11 38  1  0
 15 39  1  0
 16 40  1  0
 19 41  1  0
 21 42  1  0
 22 43  1  0
 25 44  1  0
 25 45  1  0
M  END
>  <meeko>  (14)
{"is_sidechain": false}

>  <source_group>  (14)
BACE1-457

>  <source_system>  (14)
BACE1_verubecestat

>  <source_run>  (14)
alternate_457_seed5519_ex32

>  <source_seed>  (14)
5519

>  <vina_pose_rank>  (14)
14

>  <vina_affinity_kcal_mol>  (14)
-6.9249999999999998

>  <vina_rmsd_to_crystal_angstrom>  (14)
6.6515000000000004

$$$$
BACE1_verubecestat__alternate_457_seed5519_ex32__pose15
     RDKit          3D

 45 47  0  0  0  0  0  0  0  0999 V2000
   23.9280   11.2430   15.8440 C   0  0  0  0  0  0  0  0  0  0  0  0
   23.5460    9.8230   15.9750 N   0  0  0  0  0  0  0  0  0  0  0  0
   24.0140    8.9920   17.0170 C   0  0  0  0  0  0  0  0  0  0  0  0
   24.7290    9.6560   17.9780 N   0  0  0  0  0  0  0  0  0  0  0  0
   23.7770    7.7190   17.0870 N   0  0  0  0  0  0  0  0  0  0  0  0
   23.0950    7.0040   16.0090 C   0  0  2  0  0  0  0  0  0  0  0  0
   22.6240    5.7190   16.6950 C   0  0  0  0  0  0  0  0  0  0  0  0
   24.0430    6.6380   14.8780 C   0  0  0  0  0  0  0  0  0  0  0  0
   25.4220    6.7880   15.0170 C   0  0  0  0  0  0  0  0  0  0  0  0
   26.3030    6.4680   14.0090 C   0  0  0  0  0  0  0  0  0  0  0  0
   27.6640    6.6640   14.2790 N   0  0  0  0  0  0  0  0  0  0  0  0
   28.5490    5.7960   14.8930 C   0  0  0  0  0  0  0  0  0  0  0  0
   28.2430    4.7380   15.4270 O   0  0  0  0  0  0  0  0  0  0  0  0
   29.9740    6.2060   14.8440 C   0  0  0  0  0  0  0  0  0  0  0  0
   30.5520    6.8290   15.9370 C   0  0  0  0  0  0  0  0  0  0  0  0
   31.8830    7.1910   15.8360 C   0  0  0  0  0  0  0  0  0  0  0  0
   32.5830    6.9240   14.6750 C   0  0  0  0  0  0  0  0  0  0  0  0
   33.8740    7.2660   14.5280 F   0  0  0  0  0  0  0  0  0  0  0  0
   31.9190    6.3050   13.6400 C   0  0  0  0  0  0  0  0  0  0  0  0
   30.6270    5.9470   13.7060 N   0  0  0  0  0  0  0  0  0  0  0  0
   25.8380    5.9530   12.8060 C   0  0  0  0  0  0  0  0  0  0  0  0
   24.4720    5.8000   12.6490 C   0  0  0  0  0  0  0  0  0  0  0  0
   23.5980    6.1560   13.6570 C   0  0  0  0  0  0  0  0  0  0  0  0
   22.2600    6.0240   13.4660 F   0  0  0  0  0  0  0  0  0  0  0  0
   21.8560    7.7610   15.5870 C   0  0  0  0  0  0  0  0  0  0  0  0
   22.2890    9.3400   14.9020 S   0  0  0  0  0  0  0  0  0  0  0  0
   21.1590   10.2200   15.1410 O   0  0  0  0  0  0  0  0  0  0  0  0
   22.9490    9.2050   13.6410 O   0  0  0  0  0  0  0  0  0  0  0  0
   24.0468   11.6845   16.8445 H   0  0  0  0  0  0  0  0  0  0  0  0
   24.8782   11.3179   15.2950 H   0  0  0  0  0  0  0  0  0  0  0  0
   23.1436   11.7846   15.2950 H   0  0  0  0  0  0  0  0  0  0  0  0
   25.0980    9.1630   18.7460 H   0  0  0  0  0  0  0  0  0  0  0  0
   24.8740   10.6270   17.9010 H   0  0  0  0  0  0  0  0  0  0  0  0
   22.6711    5.8476   17.7864 H   0  0  0  0  0  0  0  0  0  0  0  0
   21.5879    5.5022   16.3957 H   0  0  0  0  0  0  0  0  0  0  0  0
   23.2745    4.8840   16.3957 H   0  0  0  0  0  0  0  0  0  0  0  0
   25.8203    7.1759   15.9661 H   0  0  0  0  0  0  0  0  0  0  0  0
   28.0370    7.5290   13.9950 H   0  0  0  0  0  0  0  0  0  0  0  0
   29.9742    7.0286   16.8515 H   0  0  0  0  0  0  0  0  0  0  0  0
   32.3835    7.6906   16.6785 H   0  0  0  0  0  0  0  0  0  0  0  0
   32.4741    6.0936   12.7142 H   0  0  0  0  0  0  0  0  0  0  0  0
   26.5351    5.6750   12.0018 H   0  0  0  0  0  0  0  0  0  0  0  0
   24.0767    5.3891   11.7083 H   0  0  0  0  0  0  0  0  0  0  0  0
   21.3151    7.1748   14.8295 H   0  0  0  0  0  0  0  0  0  0  0  0
   21.2209    7.9209   16.4708 H   0  0  0  0  0  0  0  0  0  0  0  0
  1  2  1  0
  2  3  1  0
  3  4  1  0
  3  5  2  0
  5  6  1  0
  6  7  1  1
  6  8  1  0
  8  9  2  0
  9 10  1  0
 10 11  1  0
 11 12  1  0
 12 13  2  0
 12 14  1  0
 14 15  2  0
 15 16  1  0
 16 17  2  0
 17 18  1  0
 17 19  1  0
 19 20  2  0
 10 21  2  0
 21 22  1  0
 22 23  2  0
 23 24  1  0
  6 25  1  0
 25 26  1  0
 26 27  2  0
 26 28  2  0
 26  2  1  0
 23  8  1  0
 20 14  1  0
  1 29  1  0
  1 30  1  0
  1 31  1  0
  4 32  1  0
  4 33  1  0
  7 34  1  0
  7 35  1  0
  7 36  1  0
  9 37  1  0
 11 38  1  0
 15 39  1  0
 16 40  1  0
 19 41  1  0
 21 42  1  0
 22 43  1  0
 25 44  1  0
 25 45  1  0
M  END
>  <meeko>  (15)
{"is_sidechain": false}

>  <source_group>  (15)
BACE1-457

>  <source_system>  (15)
BACE1_verubecestat

>  <source_run>  (15)
alternate_457_seed5519_ex32

>  <source_seed>  (15)
5519

>  <vina_pose_rank>  (15)
15

>  <vina_affinity_kcal_mol>  (15)
-6.9009999999999998

>  <vina_rmsd_to_crystal_angstrom>  (15)
7.9676999999999998

$$$$
BACE1_verubecestat__alternate_457_seed5519_ex32__pose16
     RDKit          3D

 45 47  0  0  0  0  0  0  0  0999 V2000
   19.8110    9.4030   14.0260 C   0  0  0  0  0  0  0  0  0  0  0  0
   21.0990    8.9730   14.6070 N   0  0  0  0  0  0  0  0  0  0  0  0
   21.7140    7.7420   14.2890 C   0  0  0  0  0  0  0  0  0  0  0  0
   21.0910    7.0530   13.2830 N   0  0  0  0  0  0  0  0  0  0  0  0
   22.7870    7.3010   14.8690 N   0  0  0  0  0  0  0  0  0  0  0  0
   23.3890    7.9980   16.0040 C   0  0  2  0  0  0  0  0  0  0  0  0
   24.8110    7.4320   16.0400 C   0  0  0  0  0  0  0  0  0  0  0  0
   22.6940    7.6610   17.3140 C   0  0  0  0  0  0  0  0  0  0  0  0
   22.8820    8.4450   18.4510 C   0  0  0  0  0  0  0  0  0  0  0  0
   22.2680    8.1630   19.6500 C   0  0  0  0  0  0  0  0  0  0  0  0
   22.5400    9.0320   20.7150 N   0  0  0  0  0  0  0  0  0  0  0  0
   22.3880   10.4060   20.7600 C   0  0  0  0  0  0  0  0  0  0  0  0
   22.1030   11.1150   19.8030 O   0  0  0  0  0  0  0  0  0  0  0  0
   22.5590   11.0190   22.0990 C   0  0  0  0  0  0  0  0  0  0  0  0
   22.6530   12.3940   22.2230 C   0  0  0  0  0  0  0  0  0  0  0  0
   22.8140   12.9120   23.4960 C   0  0  0  0  0  0  0  0  0  0  0  0
   22.8720   12.0610   24.5830 C   0  0  0  0  0  0  0  0  0  0  0  0
   23.0370   12.5170   25.8360 F   0  0  0  0  0  0  0  0  0  0  0  0
   22.7750   10.7060   24.3580 C   0  0  0  0  0  0  0  0  0  0  0  0
   22.6240   10.1740   23.1340 N   0  0  0  0  0  0  0  0  0  0  0  0
   21.4070    7.0780   19.7610 C   0  0  0  0  0  0  0  0  0  0  0  0
   21.2100    6.2870   18.6430 C   0  0  0  0  0  0  0  0  0  0  0  0
   21.8580    6.5640   17.4560 C   0  0  0  0  0  0  0  0  0  0  0  0
   21.6710    5.7540   16.3810 F   0  0  0  0  0  0  0  0  0  0  0  0
   23.5070    9.4750   15.7030 C   0  0  0  0  0  0  0  0  0  0  0  0
   21.9020   10.2050   15.5020 S   0  0  0  0  0  0  0  0  0  0  0  0
   22.0710   11.3410   14.6130 O   0  0  0  0  0  0  0  0  0  0  0  0
   21.1850   10.2520   16.7380 O   0  0  0  0  0  0  0  0  0  0  0  0
   19.1043    9.6389   14.8352 H   0  0  0  0  0  0  0  0  0  0  0  0
   19.9691   10.2971   13.4050 H   0  0  0  0  0  0  0  0  0  0  0  0
   19.4003    8.5932   13.4050 H   0  0  0  0  0  0  0  0  0  0  0  0
   21.4460    6.1830   12.9890 H   0  0  0  0  0  0  0  0  0  0  0  0
   20.2880    7.4280   12.8530 H   0  0  0  0  0  0  0  0  0  0  0  0
   25.1289    7.3055   17.0854 H   0  0  0  0  0  0  0  0  0  0  0  0
   24.8308    6.4575   15.5302 H   0  0  0  0  0  0  0  0  0  0  0  0
   25.4951    8.1264   15.5302 H   0  0  0  0  0  0  0  0  0  0  0  0
   23.5449    9.3205   18.3877 H   0  0  0  0  0  0  0  0  0  0  0  0
   22.8820    8.6100   21.5360 H   0  0  0  0  0  0  0  0  0  0  0  0
   22.6016   13.0509   21.3422 H   0  0  0  0  0  0  0  0  0  0  0  0
   22.8957   13.9992   23.6423 H   0  0  0  0  0  0  0  0  0  0  0  0
   22.8235   10.0268   25.2219 H   0  0  0  0  0  0  0  0  0  0  0  0
   20.8971    6.8545   20.7097 H   0  0  0  0  0  0  0  0  0  0  0  0
   20.5279    5.4259   18.7008 H   0  0  0  0  0  0  0  0  0  0  0  0
   24.0282    9.9723   16.5343 H   0  0  0  0  0  0  0  0  0  0  0  0
   24.0722    9.6011   14.7678 H   0  0  0  0  0  0  0  0  0  0  0  0
  1  2  1  0
  2  3  1  0
  3  4  1  0
  3  5  2  0
  5  6  1  0
  6  7  1  1
  6  8  1  0
  8  9  2  0
  9 10  1  0
 10 11  1  0
 11 12  1  0
 12 13  2  0
 12 14  1  0
 14 15  2  0
 15 16  1  0
 16 17  2  0
 17 18  1  0
 17 19  1  0
 19 20  2  0
 10 21  2  0
 21 22  1  0
 22 23  2  0
 23 24  1  0
  6 25  1  0
 25 26  1  0
 26 27  2  0
 26 28  2  0
 26  2  1  0
 23  8  1  0
 20 14  1  0
  1 29  1  0
  1 30  1  0
  1 31  1  0
  4 32  1  0
  4 33  1  0
  7 34  1  0
  7 35  1  0
  7 36  1  0
  9 37  1  0
 11 38  1  0
 15 39  1  0
 16 40  1  0
 19 41  1  0
 21 42  1  0
 22 43  1  0
 25 44  1  0
 25 45  1  0
M  END
>  <meeko>  (16)
{"is_sidechain": false}

>  <source_group>  (16)
BACE1-457

>  <source_system>  (16)
BACE1_verubecestat

>  <source_run>  (16)
alternate_457_seed5519_ex32

>  <source_seed>  (16)
5519

>  <vina_pose_rank>  (16)
16

>  <vina_affinity_kcal_mol>  (16)
-6.9009999999999998

>  <vina_rmsd_to_crystal_angstrom>  (16)
7.4488000000000003

$$$$
BACE1_verubecestat__alternate_457_seed5519_ex32__pose17
     RDKit          3D

 45 47  0  0  0  0  0  0  0  0999 V2000
   23.9210   12.0680   15.2260 C   0  0  0  0  0  0  0  0  0  0  0  0
   23.4110   11.3100   16.3850 N   0  0  0  0  0  0  0  0  0  0  0  0
   24.2230   10.9400   17.4810 C   0  0  0  0  0  0  0  0  0  0  0  0
   25.4820   11.4770   17.4450 N   0  0  0  0  0  0  0  0  0  0  0  0
   23.8200   10.1830   18.4540 N   0  0  0  0  0  0  0  0  0  0  0  0
   22.5070    9.5400   18.4340 C   0  0  2  0  0  0  0  0  0  0  0  0
   22.2810    9.1770   19.9050 C   0  0  0  0  0  0  0  0  0  0  0  0
   22.5100    8.2630   17.6080 C   0  0  0  0  0  0  0  0  0  0  0  0
   23.6840    7.7820   17.0290 C   0  0  0  0  0  0  0  0  0  0  0  0
   23.7150    6.6320   16.2750 C   0  0  0  0  0  0  0  0  0  0  0  0
   24.9590    6.2580   15.7510 N   0  0  0  0  0  0  0  0  0  0  0  0
   25.4890    6.5510   14.5070 C   0  0  0  0  0  0  0  0  0  0  0  0
   24.8820    7.0930   13.5930 O   0  0  0  0  0  0  0  0  0  0  0  0
   26.9170    6.1930   14.3270 C   0  0  0  0  0  0  0  0  0  0  0  0
   27.5850    6.5740   13.1750 C   0  0  0  0  0  0  0  0  0  0  0  0
   28.9150    6.2120   13.0580 C   0  0  0  0  0  0  0  0  0  0  0  0
   29.5260    5.5000   14.0730 C   0  0  0  0  0  0  0  0  0  0  0  0
   30.8120    5.1180   13.9990 F   0  0  0  0  0  0  0  0  0  0  0  0
   28.7770    5.1620   15.1770 C   0  0  0  0  0  0  0  0  0  0  0  0
   27.4830    5.4940   15.3160 N   0  0  0  0  0  0  0  0  0  0  0  0
   22.5590    5.8860   16.0810 C   0  0  0  0  0  0  0  0  0  0  0  0
   21.3840    6.3490   16.6460 C   0  0  0  0  0  0  0  0  0  0  0  0
   21.3610    7.5220   17.3740 C   0  0  0  0  0  0  0  0  0  0  0  0
   20.1900    7.9710   17.8930 F   0  0  0  0  0  0  0  0  0  0  0  0
   21.4420   10.5450   18.0570 C   0  0  0  0  0  0  0  0  0  0  0  0
   21.6980   11.1390   16.4040 S   0  0  0  0  0  0  0  0  0  0  0  0
   21.1320   12.4750   16.3510 O   0  0  0  0  0  0  0  0  0  0  0  0
   21.4460   10.1200   15.4320 O   0  0  0  0  0  0  0  0  0  0  0  0
   24.5024   12.9321   15.5801 H   0  0  0  0  0  0  0  0  0  0  0  0
   24.5656   11.4171   14.6170 H   0  0  0  0  0  0  0  0  0  0  0  0
   23.0752   12.4198   14.6170 H   0  0  0  0  0  0  0  0  0  0  0  0
   26.1220   11.2770   18.1660 H   0  0  0  0  0  0  0  0  0  0  0  0
   25.7470   12.0620   16.6990 H   0  0  0  0  0  0  0  0  0  0  0  0
   22.7532    9.9355   20.5466 H   0  0  0  0  0  0  0  0  0  0  0  0
   21.2013    9.1421   20.1124 H   0  0  0  0  0  0  0  0  0  0  0  0
   22.7262    8.1927   20.1124 H   0  0  0  0  0  0  0  0  0  0  0  0
   24.6184    8.3422   17.1807 H   0  0  0  0  0  0  0  0  0  0  0  0
   25.5300    5.7180   16.3450 H   0  0  0  0  0  0  0  0  0  0  0  0
   27.0769    7.1432   12.3827 H   0  0  0  0  0  0  0  0  0  0  0  0
   29.4850    6.4901   12.1593 H   0  0  0  0  0  0  0  0  0  0  0  0
   29.2613    4.5927   15.9841 H   0  0  0  0  0  0  0  0  0  0  0  0
   22.5774    4.9549   15.4956 H   0  0  0  0  0  0  0  0  0  0  0  0
   20.4553    5.7747   16.5134 H   0  0  0  0  0  0  0  0  0  0  0  0
   20.4542   10.0651   18.1194 H   0  0  0  0  0  0  0  0  0  0  0  0
   21.4970   11.3963   18.7515 H   0  0  0  0  0  0  0  0  0  0  0  0
  1  2  1  0
  2  3  1  0
  3  4  1  0
  3  5  2  0
  5  6  1  0
  6  7  1  1
  6  8  1  0
  8  9  2  0
  9 10  1  0
 10 11  1  0
 11 12  1  0
 12 13  2  0
 12 14  1  0
 14 15  2  0
 15 16  1  0
 16 17  2  0
 17 18  1  0
 17 19  1  0
 19 20  2  0
 10 21  2  0
 21 22  1  0
 22 23  2  0
 23 24  1  0
  6 25  1  0
 25 26  1  0
 26 27  2  0
 26 28  2  0
 26  2  1  0
 23  8  1  0
 20 14  1  0
  1 29  1  0
  1 30  1  0
  1 31  1  0
  4 32  1  0
  4 33  1  0
  7 34  1  0
  7 35  1  0
  7 36  1  0
  9 37  1  0
 11 38  1  0
 15 39  1  0
 16 40  1  0
 19 41  1  0
 21 42  1  0
 22 43  1  0
 25 44  1  0
 25 45  1  0
M  END
>  <meeko>  (17)
{"is_sidechain": false}

>  <source_group>  (17)
BACE1-457

>  <source_system>  (17)
BACE1_verubecestat

>  <source_run>  (17)
alternate_457_seed5519_ex32

>  <source_seed>  (17)
5519

>  <vina_pose_rank>  (17)
17

>  <vina_affinity_kcal_mol>  (17)
-6.8639999999999999

>  <vina_rmsd_to_crystal_angstrom>  (17)
7.1551999999999998

$$$$
BACE1_verubecestat__alternate_457_seed5519_ex32__pose18
     RDKit          3D

 45 47  0  0  0  0  0  0  0  0999 V2000
   29.0880   11.0170   14.2380 C   0  0  0  0  0  0  0  0  0  0  0  0
   29.0590    9.6260   14.7320 N   0  0  0  0  0  0  0  0  0  0  0  0
   29.9050    8.6130   14.2310 C   0  0  0  0  0  0  0  0  0  0  0  0
   30.8570    9.0660   13.3570 N   0  0  0  0  0  0  0  0  0  0  0  0
   29.8200    7.3650   14.5750 N   0  0  0  0  0  0  0  0  0  0  0  0
   28.7410    6.8770   15.4340 C   0  0  2  0  0  0  0  0  0  0  0  0
   29.2870    5.5400   15.9430 C   0  0  0  0  0  0  0  0  0  0  0  0
   27.4620    6.6200   14.6530 C   0  0  0  0  0  0  0  0  0  0  0  0
   26.2360    6.4880   15.3030 C   0  0  0  0  0  0  0  0  0  0  0  0
   25.0630    6.2520   14.6220 C   0  0  0  0  0  0  0  0  0  0  0  0
   23.9000    6.1430   15.3950 N   0  0  0  0  0  0  0  0  0  0  0  0
   23.3780    5.0160   16.0050 C   0  0  0  0  0  0  0  0  0  0  0  0
   23.7970    3.8760   15.8530 O   0  0  0  0  0  0  0  0  0  0  0  0
   22.2460    5.2630   16.9310 C   0  0  0  0  0  0  0  0  0  0  0  0
   21.7670    6.5500   17.1090 C   0  0  0  0  0  0  0  0  0  0  0  0
   20.7110    6.7230   17.9860 C   0  0  0  0  0  0  0  0  0  0  0  0
   20.1750    5.6320   18.6420 C   0  0  0  0  0  0  0  0  0  0  0  0
   19.1560    5.7530   19.5090 F   0  0  0  0  0  0  0  0  0  0  0  0
   20.7240    4.3920   18.4030 C   0  0  0  0  0  0  0  0  0  0  0  0
   21.7520    4.1930   17.5620 N   0  0  0  0  0  0  0  0  0  0  0  0
   25.0610    6.1580   13.2360 C   0  0  0  0  0  0  0  0  0  0  0  0
   26.2700    6.2820   12.5750 C   0  0  0  0  0  0  0  0  0  0  0  0
   27.4430    6.4870   13.2730 C   0  0  0  0  0  0  0  0  0  0  0  0
   28.6200    6.5760   12.6020 F   0  0  0  0  0  0  0  0  0  0  0  0
   28.5870    7.7810   16.6370 C   0  0  0  0  0  0  0  0  0  0  0  0
   28.0890    9.4100   16.1380 S   0  0  0  0  0  0  0  0  0  0  0  0
   28.5880   10.3230   17.1500 O   0  0  0  0  0  0  0  0  0  0  0  0
   26.7500    9.4210   15.6350 O   0  0  0  0  0  0  0  0  0  0  0  0
   29.1024   11.7094   15.0926 H   0  0  0  0  0  0  0  0  0  0  0  0
   29.9895   11.1703   13.6267 H   0  0  0  0  0  0  0  0  0  0  0  0
   28.1936   11.2077   13.6267 H   0  0  0  0  0  0  0  0  0  0  0  0
   31.4950    8.4340   12.9540 H   0  0  0  0  0  0  0  0  0  0  0  0
   30.9040   10.0240   13.1330 H   0  0  0  0  0  0  0  0  0  0  0  0
   29.2874    5.5390   17.0430 H   0  0  0  0  0  0  0  0  0  0  0  0
   28.6514    4.7207   15.5758 H   0  0  0  0  0  0  0  0  0  0  0  0
   30.3144    5.3998   15.5758 H   0  0  0  0  0  0  0  0  0  0  0  0
   26.2046    6.5755   16.3991 H   0  0  0  0  0  0  0  0  0  0  0  0
   23.3890    6.9750   15.5210 H   0  0  0  0  0  0  0  0  0  0  0  0
   22.2095    7.4028   16.5733 H   0  0  0  0  0  0  0  0  0  0  0  0
   20.2989    7.7278   18.1606 H   0  0  0  0  0  0  0  0  0  0  0  0
   20.3000    3.5223   18.9263 H   0  0  0  0  0  0  0  0  0  0  0  0
   24.1263    5.9900   12.6808 H   0  0  0  0  0  0  0  0  0  0  0  0
   26.2969    6.2163   11.4773 H   0  0  0  0  0  0  0  0  0  0  0  0
   27.8248    7.3605   17.3094 H   0  0  0  0  0  0  0  0  0  0  0  0
   29.5556    7.8501   17.1538 H   0  0  0  0  0  0  0  0  0  0  0  0
  1  2  1  0
  2  3  1  0
  3  4  1  0
  3  5  2  0
  5  6  1  0
  6  7  1  1
  6  8  1  0
  8  9  2  0
  9 10  1  0
 10 11  1  0
 11 12  1  0
 12 13  2  0
 12 14  1  0
 14 15  2  0
 15 16  1  0
 16 17  2  0
 17 18  1  0
 17 19  1  0
 19 20  2  0
 10 21  2  0
 21 22  1  0
 22 23  2  0
 23 24  1  0
  6 25  1  0
 25 26  1  0
 26 27  2  0
 26 28  2  0
 26  2  1  0
 23  8  1  0
 20 14  1  0
  1 29  1  0
  1 30  1  0
  1 31  1  0
  4 32  1  0
  4 33  1  0
  7 34  1  0
  7 35  1  0
  7 36  1  0
  9 37  1  0
 11 38  1  0
 15 39  1  0
 16 40  1  0
 19 41  1  0
 21 42  1  0
 22 43  1  0
 25 44  1  0
 25 45  1  0
M  END
>  <meeko>  (18)
{"is_sidechain": false}

>  <source_group>  (18)
BACE1-457

>  <source_system>  (18)
BACE1_verubecestat

>  <source_run>  (18)
alternate_457_seed5519_ex32

>  <source_seed>  (18)
5519

>  <vina_pose_rank>  (18)
18

>  <vina_affinity_kcal_mol>  (18)
-6.8170000000000002

>  <vina_rmsd_to_crystal_angstrom>  (18)
10.2615

$$$$
BACE1_verubecestat__alternate_457_seed5519_ex32__pose19
     RDKit          3D

 45 47  0  0  0  0  0  0  0  0999 V2000
   26.6110   13.5210   18.1400 C   0  0  0  0  0  0  0  0  0  0  0  0
   26.8260   13.4030   19.5960 N   0  0  0  0  0  0  0  0  0  0  0  0
   27.3490   12.2400   20.2050 C   0  0  0  0  0  0  0  0  0  0  0  0
   27.7800   11.2930   19.3150 N   0  0  0  0  0  0  0  0  0  0  0  0
   27.4420   12.0780   21.4890 N   0  0  0  0  0  0  0  0  0  0  0  0
   26.8930   13.0540   22.4280 C   0  0  2  0  0  0  0  0  0  0  0  0
   27.6230   12.7240   23.7330 C   0  0  0  0  0  0  0  0  0  0  0  0
   25.3990   12.8640   22.6400 C   0  0  0  0  0  0  0  0  0  0  0  0
   24.6850   11.9120   21.9140 C   0  0  0  0  0  0  0  0  0  0  0  0
   23.3320   11.7200   22.0830 C   0  0  0  0  0  0  0  0  0  0  0  0
   22.7350   10.7280   21.2930 N   0  0  0  0  0  0  0  0  0  0  0  0
   22.3040   10.8210   19.9820 C   0  0  0  0  0  0  0  0  0  0  0  0
   22.2590   11.8540   19.3270 O   0  0  0  0  0  0  0  0  0  0  0  0
   21.9080    9.5380   19.3540 C   0  0  0  0  0  0  0  0  0  0  0  0
   21.1810    9.5400   18.1750 C   0  0  0  0  0  0  0  0  0  0  0  0
   20.8370    8.3150   17.6330 C   0  0  0  0  0  0  0  0  0  0  0  0
   21.2220    7.1490   18.2680 C   0  0  0  0  0  0  0  0  0  0  0  0
   20.9030    5.9370   17.7840 F   0  0  0  0  0  0  0  0  0  0  0  0
   21.9380    7.2490   19.4390 C   0  0  0  0  0  0  0  0  0  0  0  0
   22.2820    8.4240   19.9920 N   0  0  0  0  0  0  0  0  0  0  0  0
   22.6260   12.4690   23.0160 C   0  0  0  0  0  0  0  0  0  0  0  0
   23.3180   13.4210   23.7430 C   0  0  0  0  0  0  0  0  0  0  0  0
   24.6690   13.6250   23.5400 C   0  0  0  0  0  0  0  0  0  0  0  0
   25.3190   14.5870   24.2450 F   0  0  0  0  0  0  0  0  0  0  0  0
   27.3100   14.4520   22.0290 C   0  0  0  0  0  0  0  0  0  0  0  0
   26.6250   14.8840   20.4490 S   0  0  0  0  0  0  0  0  0  0  0  0
   27.5310   15.8500   19.8540 O   0  0  0  0  0  0  0  0  0  0  0  0
   25.2060   15.0500   20.5170 O   0  0  0  0  0  0  0  0  0  0  0  0
   25.6611   14.0424   17.9507 H   0  0  0  0  0  0  0  0  0  0  0  0
   27.4380   14.0916   17.6923 H   0  0  0  0  0  0  0  0  0  0  0  0
   26.5737   12.5169   17.6923 H   0  0  0  0  0  0  0  0  0  0  0  0
   28.1610   10.4470   19.6440 H   0  0  0  0  0  0  0  0  0  0  0  0
   27.7100   11.4580   18.3470 H   0  0  0  0  0  0  0  0  0  0  0  0
   26.9924   13.0091   24.5881 H   0  0  0  0  0  0  0  0  0  0  0  0
   27.8305   11.6445   23.7742 H   0  0  0  0  0  0  0  0  0  0  0  0
   28.5704   13.2814   23.7742 H   0  0  0  0  0  0  0  0  0  0  0  0
   25.2213   11.2923   21.1803 H   0  0  0  0  0  0  0  0  0  0  0  0
   22.6070    9.8530   21.7270 H   0  0  0  0  0  0  0  0  0  0  0  0
   20.8879   10.4816   17.6876 H   0  0  0  0  0  0  0  0  0  0  0  0
   20.2583    8.2686   16.6987 H   0  0  0  0  0  0  0  0  0  0  0  0
   22.2434    6.3222   19.9467 H   0  0  0  0  0  0  0  0  0  0  0  0
   21.5488   12.3098   23.1720 H   0  0  0  0  0  0  0  0  0  0  0  0
   22.7851   14.0238   24.4931 H   0  0  0  0  0  0  0  0  0  0  0  0
   26.9513   15.1656   22.7854 H   0  0  0  0  0  0  0  0  0  0  0  0
   28.4073   14.4879   21.9606 H   0  0  0  0  0  0  0  0  0  0  0  0
  1  2  1  0
  2  3  1  0
  3  4  1  0
  3  5  2  0
  5  6  1  0
  6  7  1  1
  6  8  1  0
  8  9  2  0
  9 10  1  0
 10 11  1  0
 11 12  1  0
 12 13  2  0
 12 14  1  0
 14 15  2  0
 15 16  1  0
 16 17  2  0
 17 18  1  0
 17 19  1  0
 19 20  2  0
 10 21  2  0
 21 22  1  0
 22 23  2  0
 23 24  1  0
  6 25  1  0
 25 26  1  0
 26 27  2  0
 26 28  2  0
 26  2  1  0
 23  8  1  0
 20 14  1  0
  1 29  1  0
  1 30  1  0
  1 31  1  0
  4 32  1  0
  4 33  1  0
  7 34  1  0
  7 35  1  0
  7 36  1  0
  9 37  1  0
 11 38  1  0
 15 39  1  0
 16 40  1  0
 19 41  1  0
 21 42  1  0
 22 43  1  0
 25 44  1  0
 25 45  1  0
M  END
>  <meeko>  (19)
{"is_sidechain": false}

>  <source_group>  (19)
BACE1-457

>  <source_system>  (19)
BACE1_verubecestat

>  <source_run>  (19)
alternate_457_seed5519_ex32

>  <source_seed>  (19)
5519

>  <vina_pose_rank>  (19)
19

>  <vina_affinity_kcal_mol>  (19)
-6.7919999999999998

>  <vina_rmsd_to_crystal_angstrom>  (19)
7.1814999999999998

$$$$
BACE1_verubecestat__alternate_457_seed5519_ex32__pose20
     RDKit          3D

 45 47  0  0  0  0  0  0  0  0999 V2000
   22.3540    9.5920   12.4830 C   0  0  0  0  0  0  0  0  0  0  0  0
   21.9940    9.3790   13.8990 N   0  0  0  0  0  0  0  0  0  0  0  0
   22.6930    9.9790   14.9700 C   0  0  0  0  0  0  0  0  0  0  0  0
   23.6320   10.8940   14.5770 N   0  0  0  0  0  0  0  0  0  0  0  0
   22.4610    9.7180   16.2190 N   0  0  0  0  0  0  0  0  0  0  0  0
   21.5230    8.6720   16.6240 C   0  0  2  0  0  0  0  0  0  0  0  0
   21.2160    9.0320   18.0800 C   0  0  0  0  0  0  0  0  0  0  0  0
   22.1570    7.2900   16.5830 C   0  0  0  0  0  0  0  0  0  0  0  0
   23.4410    7.1020   16.0740 C   0  0  0  0  0  0  0  0  0  0  0  0
   24.0380    5.8630   16.0220 C   0  0  0  0  0  0  0  0  0  0  0  0
   25.3330    5.8120   15.4890 N   0  0  0  0  0  0  0  0  0  0  0  0
   25.7270    5.9910   14.1750 C   0  0  0  0  0  0  0  0  0  0  0  0
   24.9670    6.0990   13.2210 O   0  0  0  0  0  0  0  0  0  0  0  0
   27.1910    6.0870   13.9600 C   0  0  0  0  0  0  0  0  0  0  0  0
   28.0630    5.5760   14.9050 C   0  0  0  0  0  0  0  0  0  0  0  0
   29.4190    5.6950   14.6540 C   0  0  0  0  0  0  0  0  0  0  0  0
   29.8530    6.3030   13.4920 C   0  0  0  0  0  0  0  0  0  0  0  0
   31.1590    6.4490   13.2100 F   0  0  0  0  0  0  0  0  0  0  0  0
   28.9080    6.7850   12.6150 C   0  0  0  0  0  0  0  0  0  0  0  0
   27.5860    6.6900   12.8340 N   0  0  0  0  0  0  0  0  0  0  0  0
   23.3760    4.7420   16.5050 C   0  0  0  0  0  0  0  0  0  0  0  0
   22.0990    4.9090   17.0110 C   0  0  0  0  0  0  0  0  0  0  0  0
   21.5000    6.1530   17.0280 C   0  0  0  0  0  0  0  0  0  0  0  0
   20.2340    6.2860   17.5020 F   0  0  0  0  0  0  0  0  0  0  0  0
   20.2300    8.8070   15.8520 C   0  0  0  0  0  0  0  0  0  0  0  0
   20.5040    8.5440   14.1180 S   0  0  0  0  0  0  0  0  0  0  0  0
   19.4810    9.3000   13.4180 O   0  0  0  0  0  0  0  0  0  0  0  0
   20.8310    7.1810   13.8360 O   0  0  0  0  0  0  0  0  0  0  0  0
   23.2994   10.1514   12.4252 H   0  0  0  0  0  0  0  0  0  0  0  0
   22.4728    8.6187   11.9844 H   0  0  0  0  0  0  0  0  0  0  0  0
   21.5581   10.1646   11.9844 H   0  0  0  0  0  0  0  0  0  0  0  0
   24.1720   11.3670   15.2510 H   0  0  0  0  0  0  0  0  0  0  0  0
   23.7690   11.0800   13.6190 H   0  0  0  0  0  0  0  0  0  0  0  0
   21.7825    8.3677   18.7492 H   0  0  0  0  0  0  0  0  0  0  0  0
   21.5059   10.0763   18.2685 H   0  0  0  0  0  0  0  0  0  0  0  0
   20.1391    8.9107   18.2685 H   0  0  0  0  0  0  0  0  0  0  0  0
   23.9968    7.9748   15.7007 H   0  0  0  0  0  0  0  0  0  0  0  0
   26.0550    5.6260   16.1320 H   0  0  0  0  0  0  0  0  0  0  0  0
   27.6925    5.0933   15.8214 H   0  0  0  0  0  0  0  0  0  0  0  0
   30.1497    5.3061   15.3785 H   0  0  0  0  0  0  0  0  0  0  0  0
   29.2518    7.2714   11.6902 H   0  0  0  0  0  0  0  0  0  0  0  0
   23.8525    3.7508   16.4859 H   0  0  0  0  0  0  0  0  0  0  0  0
   21.5536    4.0388   17.4051 H   0  0  0  0  0  0  0  0  0  0  0  0
   19.5098    8.0619   16.2208 H   0  0  0  0  0  0  0  0  0  0  0  0
   19.8358    9.8236   15.9975 H   0  0  0  0  0  0  0  0  0  0  0  0
  1  2  1  0
  2  3  1  0
  3  4  1  0
  3  5  2  0
  5  6  1  0
  6  7  1  1
  6  8  1  0
  8  9  2  0
  9 10  1  0
 10 11  1  0
 11 12  1  0
 12 13  2  0
 12 14  1  0
 14 15  2  0
 15 16  1  0
 16 17  2  0
 17 18  1  0
 17 19  1  0
 19 20  2  0
 10 21  2  0
 21 22  1  0
 22 23  2  0
 23 24  1  0
  6 25  1  0
 25 26  1  0
 26 27  2  0
 26 28  2  0
 26  2  1  0
 23  8  1  0
 20 14  1  0
  1 29  1  0
  1 30  1  0
  1 31  1  0
  4 32  1  0
  4 33  1  0
  7 34  1  0
  7 35  1  0
  7 36  1  0
  9 37  1  0
 11 38  1  0
 15 39  1  0
 16 40  1  0
 19 41  1  0
 21 42  1  0
 22 43  1  0
 25 44  1  0
 25 45  1  0
M  END
>  <meeko>  (20)
{"is_sidechain": false}

>  <source_group>  (20)
BACE1-457

>  <source_system>  (20)
BACE1_verubecestat

>  <source_run>  (20)
alternate_457_seed5519_ex32

>  <source_seed>  (20)
5519

>  <vina_pose_rank>  (20)
20

>  <vina_affinity_kcal_mol>  (20)
-6.7290000000000001

>  <vina_rmsd_to_crystal_angstrom>  (20)
8.4791000000000007

$$$$
