docked_poses
 OpenBabel08252600153D

 72 77  0  0  0  0  0  0  0  0999 V2000
   -9.2580   13.6860   -0.3940 C   0  0  0  0  0  0  0  0  0  0  0  0
   -8.4260   14.0270   -1.5350 N   0  0  0  0  0  0  0  0  0  0  0  0
   -9.0240   13.5220   -2.7590 C   0  0  0  0  0  0  0  0  0  0  0  0
   -8.2050   13.9170   -3.9970 C   0  0  0  0  0  0  0  0  0  0  0  0
   -8.0210   15.3610   -4.1040 N   0  0  0  0  0  0  0  0  0  0  0  0
   -7.1810   15.6490   -5.2610 C   0  0  0  0  0  0  0  0  0  0  0  0
   -7.9100   16.1050   -6.5360 C   0  0  0  0  0  0  0  0  0  0  0  0
   -9.2970   16.2430   -6.3420 O   0  0  0  0  0  0  0  0  0  0  0  0
  -10.0830   15.9920   -7.4400 C   0  0  0  0  0  0  0  0  0  0  0  0
  -11.1870   16.6960   -7.7150 C   0  0  0  0  0  0  0  0  0  0  0  0
  -11.9420   16.4260   -8.7890 C   0  0  0  0  0  0  0  0  0  0  0  0
  -11.6440   15.4240   -9.6630 C   0  0  0  0  0  0  0  0  0  0  0  0
  -10.5280   14.6890   -9.4000 C   0  0  0  0  0  0  0  0  0  0  0  0
  -10.1220   13.6600  -10.2300 O   0  0  0  0  0  0  0  0  0  0  0  0
  -10.0310   12.3230   -9.8020 C   0  0  0  0  0  0  0  0  0  0  0  0
  -11.1700   11.9020   -8.8730 C   0  0  0  0  0  0  0  0  0  0  0  0
  -11.2330   10.3840   -8.7330 C   0  0  0  0  0  0  0  0  0  0  0  0
  -11.3630    9.7700   -9.9920 O   0  0  0  0  0  0  0  0  0  0  0  0
  -10.2110    9.9880  -10.7610 C   0  0  0  0  0  0  0  0  0  0  0  0
  -10.0790   11.4730  -11.0820 C   0  0  0  0  0  0  0  0  0  0  0  0
   -9.7950   15.0040   -8.3080 C   0  0  0  0  0  0  0  0  0  0  0  0
  -12.4960   15.2610  -10.7160 C   0  0  1  0  0  0  0  0  0  0  0  0
  -12.5440   14.4450  -11.7040 N   0  0  0  0  0  0  0  0  0  0  0  0
  -13.3950   14.0700  -12.5830 C   0  0  0  0  0  0  0  0  0  0  0  0
  -14.1280   12.9380  -12.3820 C   0  0  0  0  0  0  0  0  0  0  0  0
  -13.9920   11.9300  -10.9690 Cl  0  0  0  0  0  0  0  0  0  0  0  0
  -15.0410   12.5250  -13.2820 C   0  0  0  0  0  0  0  0  0  0  0  0
  -15.2630   13.2000  -14.4180 C   0  0  0  0  0  0  0  0  0  0  0  0
  -14.5480   14.3070  -14.6300 C   0  0  0  0  0  0  0  0  0  0  0  0
  -13.6390   14.7270  -13.7400 C   0  0  0  0  0  0  0  0  0  0  0  0
  -13.1080   15.7620  -14.1480 O   0  0  0  0  0  0  0  0  0  0  0  0
  -13.6260   16.0610  -15.4430 C   0  0  0  0  0  0  0  0  0  0  0  0
  -14.6110   15.0480  -15.6100 O   0  0  0  0  0  0  0  0  0  0  0  0
  -13.4980   16.0480  -10.7940 N   0  0  0  0  0  0  0  0  0  0  0  0
  -13.6860   16.9460   -9.9270 C   0  0  0  0  0  0  0  0  0  0  0  0
  -12.9560   17.1730   -8.9280 N   0  0  0  0  0  0  0  0  0  0  0  0
   -7.4120   15.8340   -2.8700 C   0  0  0  0  0  0  0  0  0  0  0  0
   -8.2560   15.4650   -1.6350 C   0  0  0  0  0  0  0  0  0  0  0  0
   -8.7143   13.9088    0.5359 H   0  0  0  0  0  0  0  0  0  0  0  0
  -10.1855   14.2765   -0.4270 H   0  0  0  0  0  0  0  0  0  0  0  0
   -9.5042   12.6144   -0.4270 H   0  0  0  0  0  0  0  0  0  0  0  0
   -9.0783   12.4248   -2.7028 H   0  0  0  0  0  0  0  0  0  0  0  0
  -10.0273   13.9621   -2.8571 H   0  0  0  0  0  0  0  0  0  0  0  0
   -7.2165   13.4385   -3.9342 H   0  0  0  0  0  0  0  0  0  0  0  0
   -8.7587   13.5823   -4.8866 H   0  0  0  0  0  0  0  0  0  0  0  0
   -6.4774   16.4446   -4.9746 H   0  0  0  0  0  0  0  0  0  0  0  0
   -6.7039   14.6929   -5.5221 H   0  0  0  0  0  0  0  0  0  0  0  0
   -7.4990   17.0760   -6.8495 H   0  0  0  0  0  0  0  0  0  0  0  0
   -7.7545   15.3337   -7.3047 H   0  0  0  0  0  0  0  0  0  0  0  0
  -11.4821   17.5159   -7.0437 H   0  0  0  0  0  0  0  0  0  0  0  0
   -9.1070   12.1888   -9.2204 H   0  0  0  0  0  0  0  0  0  0  0  0
  -11.0074   12.3477   -7.8806 H   0  0  0  0  0  0  0  0  0  0  0  0
  -12.1195   12.2525   -9.3038 H   0  0  0  0  0  0  0  0  0  0  0  0
  -10.3101   10.0278   -8.2519 H   0  0  0  0  0  0  0  0  0  0  0  0
  -12.1095   10.1229   -8.1218 H   0  0  0  0  0  0  0  0  0  0  0  0
   -9.3269    9.6561  -10.1969 H   0  0  0  0  0  0  0  0  0  0  0  0
  -10.2867    9.4185  -11.6990 H   0  0  0  0  0  0  0  0  0  0  0  0
   -9.1530   11.6344  -11.6534 H   0  0  0  0  0  0  0  0  0  0  0  0
  -10.9584   11.7794  -11.6675 H   0  0  0  0  0  0  0  0  0  0  0  0
   -8.8925   14.4059   -8.1137 H   0  0  0  0  0  0  0  0  0  0  0  0
  -11.8862   15.9521  -11.3164 H   0  0  0  0  0  0  0  0  0  0  0  0
  -11.6320   13.9330  -11.8400 H   0  0  0  0  0  0  0  0  0  0  0  0
  -15.6186   11.6110  -13.0794 H   0  0  0  0  0  0  0  0  0  0  0  0
  -16.0079   12.8542  -15.1498 H   0  0  0  0  0  0  0  0  0  0  0  0
  -14.0760   17.0643  -15.4713 H   0  0  0  0  0  0  0  0  0  0  0  0
  -12.8620   16.0708  -16.2343 H   0  0  0  0  0  0  0  0  0  0  0  0
  -14.5690   17.5889  -10.0570 H   0  0  0  0  0  0  0  0  0  0  0  0
  -13.1620   17.8930   -8.2870 H   0  0  0  0  0  0  0  0  0  0  0  0
   -6.4153   15.3798   -2.7683 H   0  0  0  0  0  0  0  0  0  0  0  0
   -7.3444   16.9307   -2.9216 H   0  0  0  0  0  0  0  0  0  0  0  0
   -7.7495   15.8316   -0.7300 H   0  0  0  0  0  0  0  0  0  0  0  0
   -9.2478   15.9301   -1.7352 H   0  0  0  0  0  0  0  0  0  0  0  0
  1  2  1  0  0  0  0
  1 39  1  0  0  0  0
  1 40  1  0  0  0  0
  1 41  1  0  0  0  0
  2  3  1  0  0  0  0
  3  4  1  0  0  0  0
  3 42  1  0  0  0  0
  3 43  1  0  0  0  0
  4  5  1  0  0  0  0
  4 44  1  0  0  0  0
  4 45  1  0  0  0  0
  5  6  1  0  0  0  0
  5 37  1  0  0  0  0
  6  7  1  0  0  0  0
  6 46  1  0  0  0  0
  6 47  1  0  0  0  0
  7  8  1  0  0  0  0
  7 48  1  0  0  0  0
  7 49  1  0  0  0  0
  8  9  1  0  0  0  0
  9 10  2  0  0  0  0
 10 11  1  0  0  0  0
 10 50  1  0  0  0  0
 11 12  2  0  0  0  0
 12 13  1  0  0  0  0
 12 22  1  0  0  0  0
 13 14  1  0  0  0  0
 13 21  2  0  0  0  0
 14 15  1  0  0  0  0
 15 16  1  0  0  0  0
 15 51  1  0  0  0  0
 16 17  1  0  0  0  0
 16 52  1  0  0  0  0
 16 53  1  0  0  0  0
 17 18  1  0  0  0  0
 17 54  1  0  0  0  0
 17 55  1  0  0  0  0
 18 19  1  0  0  0  0
 19 20  1  0  0  0  0
 19 56  1  0  0  0  0
 19 57  1  0  0  0  0
 20 15  1  0  0  0  0
 20 58  1  0  0  0  0
 20 59  1  0  0  0  0
 21  9  1  0  0  0  0
 21 60  1  0  0  0  0
 22 23  1  0  0  0  0
 22 34  1  0  0  0  0
 22 61  1  6  0  0  0
 23 24  1  0  0  0  0
 23 62  1  0  0  0  0
 24 25  2  0  0  0  0
 25 26  1  0  0  0  0
 25 27  1  0  0  0  0
 27 28  2  0  0  0  0
 27 63  1  0  0  0  0
 28 29  1  0  0  0  0
 28 64  1  0  0  0  0
 29 30  2  0  0  0  0
 30 31  1  0  0  0  0
 30 24  1  0  0  0  0
 31 32  1  0  0  0  0
 32 33  1  0  0  0  0
 32 65  1  0  0  0  0
 32 66  1  0  0  0  0
 33 29  1  0  0  0  0
 34 35  2  0  0  0  0
 35 36  1  0  0  0  0
 35 67  1  0  0  0  0
 36 11  1  0  0  0  0
 36 68  1  0  0  0  0
 37 38  1  0  0  0  0
 37 69  1  0  0  0  0
 37 70  1  0  0  0  0
 38  2  1  0  0  0  0
 38 71  1  0  0  0  0
 38 72  1  0  0  0  0
M  END
>  <meeko>
{"is_sidechain": [false], "free_energy": -9.182, "intermolecular_energy": -13.476, "internal_energy": -1.748}

$$$$
