docked_poses
 OpenBabel08252600153D

 66 70  0  0  0  0  0  0  0  0999 V2000
   24.5230   26.0220   45.7990 C   0  0  0  0  0  0  0  0  0  0  0  0
   24.5020   26.0090   44.2950 C   0  0  0  0  0  0  0  0  0  0  0  0
   23.4760   26.6810   43.6190 C   0  0  0  0  0  0  0  0  0  0  0  0
   23.4280   26.6850   42.2230 C   0  0  0  0  0  0  0  0  0  0  0  0
   24.4040   26.0220   41.4720 C   0  0  0  0  0  0  0  0  0  0  0  0
   24.2720   26.0640   40.0680 N   0  0  0  0  0  0  0  0  0  0  0  0
   24.8950   25.2470   39.1430 C   0  0  0  0  0  0  0  0  0  0  0  0
   25.6380   24.3020   39.3770 O   0  0  0  0  0  0  0  0  0  0  0  0
   24.5580   25.5500   37.7240 C   0  0  0  0  0  0  0  0  0  0  0  0
   23.3970   26.2810   37.4540 C   0  0  0  0  0  0  0  0  0  0  0  0
   23.0620   26.5990   36.1370 C   0  0  0  0  0  0  0  0  0  0  0  0
   23.8780   26.1860   35.0720 C   0  0  0  0  0  0  0  0  0  0  0  0
   23.5010   26.5190   33.6390 C   0  0  0  0  0  0  0  0  0  0  0  0
   23.8710   27.8950   33.2600 N   0  0  0  0  0  0  0  0  0  0  0  0
   22.9240   28.8630   33.8430 C   0  0  0  0  0  0  0  0  0  0  0  0
   21.4860   28.8340   33.2550 C   0  0  0  0  0  0  0  0  0  0  0  0
   21.4050   28.3180   31.8740 N   0  0  0  0  0  0  0  0  0  0  0  0
   20.2040   28.7970   31.1980 C   0  0  0  0  0  0  0  0  0  0  0  0
   22.6250   28.6650   31.1340 C   0  0  0  0  0  0  0  0  0  0  0  0
   23.9010   28.0660   31.7870 C   0  0  0  0  0  0  0  0  0  0  0  0
   25.0260   25.4280   35.3490 C   0  0  0  0  0  0  0  0  0  0  0  0
   25.3660   25.1110   36.6670 C   0  0  0  0  0  0  0  0  0  0  0  0
   25.4430   25.3750   42.1430 C   0  0  0  0  0  0  0  0  0  0  0  0
   25.5060   25.3640   43.5480 C   0  0  0  0  0  0  0  0  0  0  0  0
   26.5840   24.7120   44.1940 N   0  0  0  0  0  0  0  0  0  0  0  0
   27.7580   25.3310   44.4950 C   0  0  0  0  0  0  0  0  0  0  0  0
   28.6380   24.7690   45.2970 N   0  0  0  0  0  0  0  0  0  0  0  0
   29.7470   25.5810   45.4860 C   0  0  0  0  0  0  0  0  0  0  0  0
   30.8410   25.1560   46.3540 C   0  0  0  0  0  0  0  0  0  0  0  0
   31.9530   25.9550   46.6410 C   0  0  0  0  0  0  0  0  0  0  0  0
   32.9550   25.4790   47.4910 C   0  0  0  0  0  0  0  0  0  0  0  0
   32.8150   24.2130   48.0330 C   0  0  0  0  0  0  0  0  0  0  0  0
   31.7630   23.4090   47.7840 N   0  0  0  0  0  0  0  0  0  0  0  0
   30.8050   23.8980   46.9550 C   0  0  0  0  0  0  0  0  0  0  0  0
   29.6980   26.7750   44.7960 C   0  0  0  0  0  0  0  0  0  0  0  0
   28.2330   26.8880   43.9150 S   0  0  0  0  0  0  0  0  0  0  0  0
   23.6464   25.4794   46.1826 H   0  0  0  0  0  0  0  0  0  0  0  0
   25.4417   25.5344   46.1571 H   0  0  0  0  0  0  0  0  0  0  0  0
   24.4963   27.0617   46.1571 H   0  0  0  0  0  0  0  0  0  0  0  0
   22.7009   27.2105   44.1925 H   0  0  0  0  0  0  0  0  0  0  0  0
   22.6133   27.2156   41.7085 H   0  0  0  0  0  0  0  0  0  0  0  0
   23.5760   26.7040   39.7120 H   0  0  0  0  0  0  0  0  0  0  0  0
   22.7473   26.6056   38.2801 H   0  0  0  0  0  0  0  0  0  0  0  0
   22.1500   27.1787   35.9316 H   0  0  0  0  0  0  0  0  0  0  0  0
   24.0172   25.8177   32.9669 H   0  0  0  0  0  0  0  0  0  0  0  0
   22.4077   26.4327   33.5537 H   0  0  0  0  0  0  0  0  0  0  0  0
   22.8526   28.6589   34.9215 H   0  0  0  0  0  0  0  0  0  0  0  0
   23.3264   29.8585   33.6040 H   0  0  0  0  0  0  0  0  0  0  0  0
   20.8634   28.1952   33.8986 H   0  0  0  0  0  0  0  0  0  0  0  0
   21.1376   29.8769   33.2228 H   0  0  0  0  0  0  0  0  0  0  0  0
   19.4559   29.0954   31.9472 H   0  0  0  0  0  0  0  0  0  0  0  0
   20.4581   29.6626   30.5686 H   0  0  0  0  0  0  0  0  0  0  0  0
   19.7926   27.9941   30.5686 H   0  0  0  0  0  0  0  0  0  0  0  0
   22.5382   28.2787   30.1077 H   0  0  0  0  0  0  0  0  0  0  0  0
   22.7245   29.7604   31.1438 H   0  0  0  0  0  0  0  0  0  0  0  0
   24.0729   27.0763   31.3388 H   0  0  0  0  0  0  0  0  0  0  0  0
   24.6986   28.7987   31.5945 H   0  0  0  0  0  0  0  0  0  0  0  0
   25.6632   25.0806   34.5224 H   0  0  0  0  0  0  0  0  0  0  0  0
   26.2681   24.5167   36.8745 H   0  0  0  0  0  0  0  0  0  0  0  0
   26.2261   24.8649   41.5629 H   0  0  0  0  0  0  0  0  0  0  0  0
   26.7580   23.8030   43.7740 H   0  0  0  0  0  0  0  0  0  0  0  0
   32.0386   26.9580   46.1976 H   0  0  0  0  0  0  0  0  0  0  0  0
   33.8350   26.0964   47.7241 H   0  0  0  0  0  0  0  0  0  0  0  0
   33.6052   23.8435   48.7031 H   0  0  0  0  0  0  0  0  0  0  0  0
   29.9379   23.2554   46.7421 H   0  0  0  0  0  0  0  0  0  0  0  0
   30.4854   27.5430   44.8096 H   0  0  0  0  0  0  0  0  0  0  0  0
  1  2  1  0  0  0  0
  1 37  1  0  0  0  0
  1 38  1  0  0  0  0
  1 39  1  0  0  0  0
  2  3  2  0  0  0  0
  3  4  1  0  0  0  0
  3 40  1  0  0  0  0
  4  5  2  0  0  0  0
  4 41  1  0  0  0  0
  5  6  1  0  0  0  0
  5 23  1  0  0  0  0
  6  7  1  0  0  0  0
  6 42  1  0  0  0  0
  7  8  2  0  0  0  0
  7  9  1  0  0  0  0
  9 10  2  0  0  0  0
 10 11  1  0  0  0  0
 10 43  1  0  0  0  0
 11 12  2  0  0  0  0
 11 44  1  0  0  0  0
 12 13  1  0  0  0  0
 12 21  1  0  0  0  0
 13 14  1  0  0  0  0
 13 45  1  0  0  0  0
 13 46  1  0  0  0  0
 14 15  1  0  0  0  0
 15 16  1  0  0  0  0
 15 47  1  0  0  0  0
 15 48  1  0  0  0  0
 16 17  1  0  0  0  0
 16 49  1  0  0  0  0
 16 50  1  0  0  0  0
 17 18  1  0  0  0  0
 17 19  1  0  0  0  0
 18 51  1  0  0  0  0
 18 52  1  0  0  0  0
 18 53  1  0  0  0  0
 19 20  1  0  0  0  0
 19 54  1  0  0  0  0
 19 55  1  0  0  0  0
 20 14  1  0  0  0  0
 20 56  1  0  0  0  0
 20 57  1  0  0  0  0
 21 22  2  0  0  0  0
 21 58  1  0  0  0  0
 22  9  1  0  0  0  0
 22 59  1  0  0  0  0
 23 24  2  0  0  0  0
 23 60  1  0  0  0  0
 24 25  1  0  0  0  0
 24  2  1  0  0  0  0
 25 26  1  0  0  0  0
 25 61  1  0  0  0  0
 26 27  2  0  0  0  0
 27 28  1  0  0  0  0
 28 29  1  0  0  0  0
 28 35  2  0  0  0  0
 29 30  2  0  0  0  0
 30 31  1  0  0  0  0
 30 62  1  0  0  0  0
 31 32  2  0  0  0  0
 31 63  1  0  0  0  0
 32 33  1  0  0  0  0
 32 64  1  0  0  0  0
 33 34  2  0  0  0  0
 34 29  1  0  0  0  0
 34 65  1  0  0  0  0
 35 36  1  0  0  0  0
 35 66  1  0  0  0  0
 36 26  1  0  0  0  0
M  END
>  <meeko>
{"is_sidechain": [false], "free_energy": -12.803, "intermolecular_energy": -18.042, "internal_energy": -0.34}

$$$$
