CHRNA7_encenicline__canonical_obabel_seed2207_ex32__pose01
     RDKit          3D

 38 41  0  0  0  0  0  0  0  0999 V2000
  143.6360  140.7380   90.0410 O   0  0  0  0  0  0  0  0  0  0  0  0
  143.0860  139.7200   90.2940 C   0  0  0  0  0  0  0  0  0  0  0  0
  141.6410  139.6400   90.2030 N   0  0  0  0  0  0  0  0  0  0  0  0
  140.8690  140.8370   89.7980 C   0  0  1  0  0  0  0  0  0  0  0  0
  140.5350  140.7620   88.2950 C   0  0  0  0  0  0  0  0  0  0  0  0
  139.1550  140.8050   88.0800 N   0  0  0  0  0  0  0  0  0  0  0  0
  138.6220  141.9570   88.6150 C   0  0  0  0  0  0  0  0  0  0  0  0
  138.8720  142.0420   90.0920 C   0  0  0  0  0  0  0  0  0  0  0  0
  139.6150  140.8980   90.5410 C   0  0  0  0  0  0  0  0  0  0  0  0
  138.8410  139.6970   90.2370 C   0  0  0  0  0  0  0  0  0  0  0  0
  138.5440  139.6810   88.6890 C   0  0  0  0  0  0  0  0  0  0  0  0
  143.9100  138.4960   90.7110 C   0  0  0  0  0  0  0  0  0  0  0  0
  143.4170  137.2670   90.9860 C   0  0  0  0  0  0  0  0  0  0  0  0
  144.3170  136.2140   91.3630 C   0  0  0  0  0  0  0  0  0  0  0  0
  143.9800  134.9220   91.6690 C   0  0  0  0  0  0  0  0  0  0  0  0
  144.9720  134.0060   92.0220 C   0  0  0  0  0  0  0  0  0  0  0  0
  146.3170  134.4090   92.0620 C   0  0  0  0  0  0  0  0  0  0  0  0
  146.6680  135.7260   91.7500 C   0  0  0  0  0  0  0  0  0  0  0  0
  148.3770  136.2310   91.8010 Cl  0  0  0  0  0  0  0  0  0  0  0  0
  145.6930  136.6300   91.4030 C   0  0  0  0  0  0  0  0  0  0  0  0
  145.6330  138.3840   90.9280 S   0  0  0  0  0  0  0  0  0  0  0  0
  141.1770  138.7970   90.4090 H   0  0  0  0  0  0  0  0  0  0  0  0
  141.4766  141.7295   90.0085 H   0  0  0  0  0  0  0  0  0  0  0  0
  141.0047  141.6132   87.7804 H   0  0  0  0  0  0  0  0  0  0  0  0
  140.9189  139.8096   87.9006 H   0  0  0  0  0  0  0  0  0  0  0  0
  139.0830  142.8264   88.1235 H   0  0  0  0  0  0  0  0  0  0  0  0
  137.5348  141.9450   88.4483 H   0  0  0  0  0  0  0  0  0  0  0  0
  139.4453  142.9550   90.3105 H   0  0  0  0  0  0  0  0  0  0  0  0
  137.9054  142.0678   90.6164 H   0  0  0  0  0  0  0  0  0  0  0  0
  139.8118  140.9686   91.6210 H   0  0  0  0  0  0  0  0  0  0  0  0
  139.4175  138.8023   90.5148 H   0  0  0  0  0  0  0  0  0  0  0  0
  137.8988  139.6985   90.8046 H   0  0  0  0  0  0  0  0  0  0  0  0
  138.9495  138.7588   88.2472 H   0  0  0  0  0  0  0  0  0  0  0  0
  137.4572  139.7194   88.5234 H   0  0  0  0  0  0  0  0  0  0  0  0
  142.3357  137.0759   90.9214 H   0  0  0  0  0  0  0  0  0  0  0  0
  142.9268  134.6063   91.6365 H   0  0  0  0  0  0  0  0  0  0  0  0
  144.7007  132.9689   92.2688 H   0  0  0  0  0  0  0  0  0  0  0  0
  147.0975  133.6854   92.3400 H   0  0  0  0  0  0  0  0  0  0  0  0
  1  2  2  0
  2  3  1  0
  3  4  1  0
  4  5  1  0
  5  6  1  0
  6  7  1  0
  7  8  1  0
  8  9  1  0
  9 10  1  0
 10 11  1  0
  2 12  1  0
 12 13  2  0
 13 14  1  0
 14 15  2  0
 15 16  1  0
 16 17  2  0
 17 18  1  0
 18 19  1  0
 18 20  2  0
 20 21  1  0
  9  4  1  0
 21 12  1  0
 11  6  1  0
 20 14  1  0
  3 22  1  0
  4 23  1  6
  5 24  1  0
  5 25  1  0
  7 26  1  0
  7 27  1  0
  8 28  1  0
  8 29  1  0
  9 30  1  0
 10 31  1  0
 10 32  1  0
 11 33  1  0
 11 34  1  0
 13 35  1  0
 15 36  1  0
 16 37  1  0
 17 38  1  0
M  END
>  <meeko>  (1)
{"is_sidechain": false}

>  <source_group>  (1)
CHRNA7 canonical

>  <source_system>  (1)
CHRNA7_encenicline

>  <source_run>  (1)
canonical_obabel_seed2207_ex32

>  <source_seed>  (1)
2207

>  <vina_pose_rank>  (1)
1

>  <vina_affinity_kcal_mol>  (1)
-9.859

>  <vina_rmsd_to_crystal_angstrom>  (1)
0.30709999999999998

$$$$
CHRNA7_encenicline__canonical_obabel_seed2207_ex32__pose02
     RDKit          3D

 38 41  0  0  0  0  0  0  0  0999 V2000
  143.8410  140.8590   89.9570 O   0  0  0  0  0  0  0  0  0  0  0  0
  143.3520  139.8100   90.2100 C   0  0  0  0  0  0  0  0  0  0  0  0
  141.9190  139.6330   90.0770 N   0  0  0  0  0  0  0  0  0  0  0  0
  141.0830  140.7700   89.6290 C   0  0  1  0  0  0  0  0  0  0  0  0
  140.6700  140.5700   88.1570 C   0  0  0  0  0  0  0  0  0  0  0  0
  139.2790  140.5510   88.0200 N   0  0  0  0  0  0  0  0  0  0  0  0
  138.7350  141.7240   88.4980 C   0  0  0  0  0  0  0  0  0  0  0  0
  139.0620  141.9290   89.9470 C   0  0  0  0  0  0  0  0  0  0  0  0
  139.8700  140.8470   90.4370 C   0  0  0  0  0  0  0  0  0  0  0  0
  139.1250  139.6030   90.2680 C   0  0  0  0  0  0  0  0  0  0  0  0
  138.7440  139.4580   88.7450 C   0  0  0  0  0  0  0  0  0  0  0  0
  144.2420  138.6510   90.6720 C   0  0  0  0  0  0  0  0  0  0  0  0
  145.5790  138.7100   90.8710 C   0  0  0  0  0  0  0  0  0  0  0  0
  146.2800  137.5360   91.3090 C   0  0  0  0  0  0  0  0  0  0  0  0
  147.6230  137.4320   91.5570 C   0  0  0  0  0  0  0  0  0  0  0  0
  148.1630  136.2160   91.9780 C   0  0  0  0  0  0  0  0  0  0  0  0
  147.3280  135.0980   92.1480 C   0  0  0  0  0  0  0  0  0  0  0  0
  145.9560  135.1990   91.8980 C   0  0  0  0  0  0  0  0  0  0  0  0
  144.9020  133.7770   92.1170 Cl  0  0  0  0  0  0  0  0  0  0  0  0
  145.4220  136.3950   91.4820 C   0  0  0  0  0  0  0  0  0  0  0  0
  143.7710  137.0170   91.0440 S   0  0  0  0  0  0  0  0  0  0  0  0
  141.5060  138.7640   90.2830 H   0  0  0  0  0  0  0  0  0  0  0  0
  141.6681  141.6952   89.7369 H   0  0  0  0  0  0  0  0  0  0  0  0
  141.0786  141.3947   87.5546 H   0  0  0  0  0  0  0  0  0  0  0  0
  141.0670  139.6038   87.8122 H   0  0  0  0  0  0  0  0  0  0  0  0
  139.1372  142.5675   87.9177 H   0  0  0  0  0  0  0  0  0  0  0  0
  137.6414  141.6652   88.3952 H   0  0  0  0  0  0  0  0  0  0  0  0
  139.6126  142.8741   90.0639 H   0  0  0  0  0  0  0  0  0  0  0  0
  138.1251  141.9631   90.5224 H   0  0  0  0  0  0  0  0  0  0  0  0
  140.1232  141.0059   91.4956 H   0  0  0  0  0  0  0  0  0  0  0  0
  139.7479  138.7512   90.5784 H   0  0  0  0  0  0  0  0  0  0  0  0
  138.2156  139.6185   90.8867 H   0  0  0  0  0  0  0  0  0  0  0  0
  139.1582  138.5182   88.3509 H   0  0  0  0  0  0  0  0  0  0  0  0
  137.6491  139.4478   88.6395 H   0  0  0  0  0  0  0  0  0  0  0  0
  146.1244  139.6496   90.6987 H   0  0  0  0  0  0  0  0  0  0  0  0
  148.2761  138.3072   91.4243 H   0  0  0  0  0  0  0  0  0  0  0  0
  149.2417  136.1324   92.1767 H   0  0  0  0  0  0  0  0  0  0  0  0
  147.7556  134.1401   92.4790 H   0  0  0  0  0  0  0  0  0  0  0  0
  1  2  2  0
  2  3  1  0
  3  4  1  0
  4  5  1  0
  5  6  1  0
  6  7  1  0
  7  8  1  0
  8  9  1  0
  9 10  1  0
 10 11  1  0
  2 12  1  0
 12 13  2  0
 13 14  1  0
 14 15  2  0
 15 16  1  0
 16 17  2  0
 17 18  1  0
 18 19  1  0
 18 20  2  0
 20 21  1  0
  9  4  1  0
 21 12  1  0
 11  6  1  0
 20 14  1  0
  3 22  1  0
  4 23  1  6
  5 24  1  0
  5 25  1  0
  7 26  1  0
  7 27  1  0
  8 28  1  0
  8 29  1  0
  9 30  1  0
 10 31  1  0
 10 32  1  0
 11 33  1  0
 11 34  1  0
 13 35  1  0
 15 36  1  0
 16 37  1  0
 17 38  1  0
M  END
>  <meeko>  (2)
{"is_sidechain": false}

>  <source_group>  (2)
CHRNA7 canonical

>  <source_system>  (2)
CHRNA7_encenicline

>  <source_run>  (2)
canonical_obabel_seed2207_ex32

>  <source_seed>  (2)
2207

>  <vina_pose_rank>  (2)
2

>  <vina_affinity_kcal_mol>  (2)
-9.1210000000000004

>  <vina_rmsd_to_crystal_angstrom>  (2)
1.8479000000000001

$$$$
CHRNA7_encenicline__canonical_obabel_seed2207_ex32__pose03
     RDKit          3D

 38 41  0  0  0  0  0  0  0  0999 V2000
  140.1430  136.6340   90.2480 O   0  0  0  0  0  0  0  0  0  0  0  0
  140.9790  137.4530   90.4330 C   0  0  0  0  0  0  0  0  0  0  0  0
  140.6600  138.8570   90.2670 N   0  0  0  0  0  0  0  0  0  0  0  0
  139.2910  139.2510   89.8640 C   0  0  1  0  0  0  0  0  0  0  0  0
  138.8090  140.4350   90.7250 C   0  0  0  0  0  0  0  0  0  0  0  0
  138.4810  141.5370   89.9320 N   0  0  0  0  0  0  0  0  0  0  0  0
  137.5020  141.2000   89.0230 C   0  0  0  0  0  0  0  0  0  0  0  0
  137.9530  140.0890   88.1210 C   0  0  0  0  0  0  0  0  0  0  0  0
  139.2830  139.6710   88.4660 C   0  0  0  0  0  0  0  0  0  0  0  0
  140.1770  140.8180   88.3260 C   0  0  0  0  0  0  0  0  0  0  0  0
  139.6320  141.9830   89.2370 C   0  0  0  0  0  0  0  0  0  0  0  0
  142.3880  137.0170   90.8500 C   0  0  0  0  0  0  0  0  0  0  0  0
  142.7780  135.7490   91.1160 C   0  0  0  0  0  0  0  0  0  0  0  0
  144.1390  135.4940   91.4940 C   0  0  0  0  0  0  0  0  0  0  0  0
  144.6890  134.2750   91.7920 C   0  0  0  0  0  0  0  0  0  0  0  0
  146.0350  134.1850   92.1470 C   0  0  0  0  0  0  0  0  0  0  0  0
  146.8270  135.3450   92.2000 C   0  0  0  0  0  0  0  0  0  0  0  0
  146.2720  136.5910   91.8970 C   0  0  0  0  0  0  0  0  0  0  0  0
  147.2820  138.0590   91.9640 Cl  0  0  0  0  0  0  0  0  0  0  0  0
  144.9460  136.6830   91.5470 C   0  0  0  0  0  0  0  0  0  0  0  0
  143.7970  138.0120   91.0810 S   0  0  0  0  0  0  0  0  0  0  0  0
  141.3480  139.5440   90.4210 H   0  0  0  0  0  0  0  0  0  0  0  0
  138.6264  138.3856   90.0030 H   0  0  0  0  0  0  0  0  0  0  0  0
  137.9202  140.1258   91.2945 H   0  0  0  0  0  0  0  0  0  0  0  0
  139.6239  140.7255   91.4043 H   0  0  0  0  0  0  0  0  0  0  0  0
  136.6033  140.8761   89.5683 H   0  0  0  0  0  0  0  0  0  0  0  0
  137.2852  142.0829   88.4038 H   0  0  0  0  0  0  0  0  0  0  0  0
  137.2665  139.2359   88.2260 H   0  0  0  0  0  0  0  0  0  0  0  0
  137.9514  140.4507   87.0822 H   0  0  0  0  0  0  0  0  0  0  0  0
  139.6062  138.8454   87.8150 H   0  0  0  0  0  0  0  0  0  0  0  0
  141.1922  140.5397   88.6454 H   0  0  0  0  0  0  0  0  0  0  0  0
  140.2149  141.1435   87.2760 H   0  0  0  0  0  0  0  0  0  0  0  0
  140.4069  142.2764   89.9605 H   0  0  0  0  0  0  0  0  0  0  0  0
  139.3707  142.8483   88.6101 H   0  0  0  0  0  0  0  0  0  0  0  0
  142.0581  134.9205   91.0432 H   0  0  0  0  0  0  0  0  0  0  0  0
  144.0691  133.3672   91.7513 H   0  0  0  0  0  0  0  0  0  0  0  0
  146.4766  133.2062   92.3855 H   0  0  0  0  0  0  0  0  0  0  0  0
  147.8879  135.2716   92.4811 H   0  0  0  0  0  0  0  0  0  0  0  0
  1  2  2  0
  2  3  1  0
  3  4  1  0
  4  5  1  0
  5  6  1  0
  6  7  1  0
  7  8  1  0
  8  9  1  0
  9 10  1  0
 10 11  1  0
  2 12  1  0
 12 13  2  0
 13 14  1  0
 14 15  2  0
 15 16  1  0
 16 17  2  0
 17 18  1  0
 18 19  1  0
 18 20  2  0
 20 21  1  0
  9  4  1  0
 21 12  1  0
 11  6  1  0
 20 14  1  0
  3 22  1  0
  4 23  1  6
  5 24  1  0
  5 25  1  0
  7 26  1  0
  7 27  1  0
  8 28  1  0
  8 29  1  0
  9 30  1  0
 10 31  1  0
 10 32  1  0
 11 33  1  0
 11 34  1  0
 13 35  1  0
 15 36  1  0
 16 37  1  0
 17 38  1  0
M  END
>  <meeko>  (3)
{"is_sidechain": false}

>  <source_group>  (3)
CHRNA7 canonical

>  <source_system>  (3)
CHRNA7_encenicline

>  <source_run>  (3)
canonical_obabel_seed2207_ex32

>  <source_seed>  (3)
2207

>  <vina_pose_rank>  (3)
3

>  <vina_affinity_kcal_mol>  (3)
-7.9829999999999997

>  <vina_rmsd_to_crystal_angstrom>  (3)
2.2866

$$$$
CHRNA7_encenicline__canonical_obabel_seed2207_ex32__pose04
     RDKit          3D

 38 41  0  0  0  0  0  0  0  0999 V2000
  145.6780  138.2490   93.1000 O   0  0  0  0  0  0  0  0  0  0  0  0
  145.5050  138.1600   91.9320 C   0  0  0  0  0  0  0  0  0  0  0  0
  146.6080  137.7880   91.0670 N   0  0  0  0  0  0  0  0  0  0  0  0
  147.9410  137.5270   91.6570 C   0  0  1  0  0  0  0  0  0  0  0  0
  148.2050  136.0090   91.7070 C   0  0  0  0  0  0  0  0  0  0  0  0
  149.3580  135.6730   90.9920 N   0  0  0  0  0  0  0  0  0  0  0  0
  150.4480  136.3480   91.4960 C   0  0  0  0  0  0  0  0  0  0  0  0
  150.2590  137.8340   91.4120 C   0  0  0  0  0  0  0  0  0  0  0  0
  148.9800  138.1450   90.8380 C   0  0  0  0  0  0  0  0  0  0  0  0
  148.9200  137.5590   89.5010 C   0  0  0  0  0  0  0  0  0  0  0  0
  149.1880  136.0110   89.6270 C   0  0  0  0  0  0  0  0  0  0  0  0
  144.1150  138.4350   91.3480 C   0  0  0  0  0  0  0  0  0  0  0  0
  143.1260  137.5240   91.1950 C   0  0  0  0  0  0  0  0  0  0  0  0
  141.8710  137.9330   90.6320 C   0  0  0  0  0  0  0  0  0  0  0  0
  140.7760  137.1390   90.4130 C   0  0  0  0  0  0  0  0  0  0  0  0
  139.6200  137.6830   89.8540 C   0  0  0  0  0  0  0  0  0  0  0  0
  139.5770  139.0460   89.5140 C   0  0  0  0  0  0  0  0  0  0  0  0
  140.6910  139.8620   89.7360 C   0  0  0  0  0  0  0  0  0  0  0  0
  140.6300  141.5910   89.3050 Cl  0  0  0  0  0  0  0  0  0  0  0  0
  141.8310  139.3290   90.2870 C   0  0  0  0  0  0  0  0  0  0  0  0
  143.4770  139.9420   90.7550 S   0  0  0  0  0  0  0  0  0  0  0  0
  146.4720  137.7100   90.0950 H   0  0  0  0  0  0  0  0  0  0  0  0
  147.9600  137.9491   92.6726 H   0  0  0  0  0  0  0  0  0  0  0  0
  148.3304  135.7009   92.7555 H   0  0  0  0  0  0  0  0  0  0  0  0
  147.3486  135.4911   91.2505 H   0  0  0  0  0  0  0  0  0  0  0  0
  150.5889  136.0642   92.5494 H   0  0  0  0  0  0  0  0  0  0  0  0
  151.3300  136.0770   90.8972 H   0  0  0  0  0  0  0  0  0  0  0  0
  150.3168  138.2643   92.4227 H   0  0  0  0  0  0  0  0  0  0  0  0
  151.0486  138.2583   90.7744 H   0  0  0  0  0  0  0  0  0  0  0  0
  148.8355  139.2344   90.7904 H   0  0  0  0  0  0  0  0  0  0  0  0
  147.9250  137.7299   89.0642 H   0  0  0  0  0  0  0  0  0  0  0  0
  149.6754  138.0227   88.8496 H   0  0  0  0  0  0  0  0  0  0  0  0
  148.3325  135.4556   89.2151 H   0  0  0  0  0  0  0  0  0  0  0  0
  150.0979  135.7487   89.0672 H   0  0  0  0  0  0  0  0  0  0  0  0
  143.2828  136.4787   91.4997 H   0  0  0  0  0  0  0  0  0  0  0  0
  140.8088  136.0720   90.6783 H   0  0  0  0  0  0  0  0  0  0  0  0
  138.7412  137.0449   89.6791 H   0  0  0  0  0  0  0  0  0  0  0  0
  138.6644  139.4723   89.0719 H   0  0  0  0  0  0  0  0  0  0  0  0
  1  2  2  0
  2  3  1  0
  3  4  1  0
  4  5  1  0
  5  6  1  0
  6  7  1  0
  7  8  1  0
  8  9  1  0
  9 10  1  0
 10 11  1  0
  2 12  1  0
 12 13  2  0
 13 14  1  0
 14 15  2  0
 15 16  1  0
 16 17  2  0
 17 18  1  0
 18 19  1  0
 18 20  2  0
 20 21  1  0
  9  4  1  0
 21 12  1  0
 11  6  1  0
 20 14  1  0
  3 22  1  0
  4 23  1  1
  5 24  1  0
  5 25  1  0
  7 26  1  0
  7 27  1  0
  8 28  1  0
  8 29  1  0
  9 30  1  0
 10 31  1  0
 10 32  1  0
 11 33  1  0
 11 34  1  0
 13 35  1  0
 15 36  1  0
 16 37  1  0
 17 38  1  0
M  END
>  <meeko>  (4)
{"is_sidechain": false}

>  <source_group>  (4)
CHRNA7 canonical

>  <source_system>  (4)
CHRNA7_encenicline

>  <source_run>  (4)
canonical_obabel_seed2207_ex32

>  <source_seed>  (4)
2207

>  <vina_pose_rank>  (4)
4

>  <vina_affinity_kcal_mol>  (4)
-7.625

>  <vina_rmsd_to_crystal_angstrom>  (4)
7.9939

$$$$
CHRNA7_encenicline__canonical_obabel_seed2207_ex32__pose05
     RDKit          3D

 38 41  0  0  0  0  0  0  0  0999 V2000
  146.1410  138.7070   92.9770 O   0  0  0  0  0  0  0  0  0  0  0  0
  145.8570  138.2880   91.9060 C   0  0  0  0  0  0  0  0  0  0  0  0
  146.8930  137.7560   91.0420 N   0  0  0  0  0  0  0  0  0  0  0  0
  148.2980  137.7470   91.5110 C   0  0  1  0  0  0  0  0  0  0  0  0
  148.6570  136.3560   92.0680 C   0  0  0  0  0  0  0  0  0  0  0  0
  149.7390  135.7990   91.3810 N   0  0  0  0  0  0  0  0  0  0  0  0
  150.8370  136.6280   91.4640 C   0  0  0  0  0  0  0  0  0  0  0  0
  150.5500  137.9780   90.8760 C   0  0  0  0  0  0  0  0  0  0  0  0
  149.1970  138.0390   90.3980 C   0  0  0  0  0  0  0  0  0  0  0  0
  149.0200  137.0060   89.3810 C   0  0  0  0  0  0  0  0  0  0  0  0
  149.3940  135.6150   90.0190 C   0  0  0  0  0  0  0  0  0  0  0  0
  144.3940  138.3090   91.4470 C   0  0  0  0  0  0  0  0  0  0  0  0
  143.6900  139.4100   91.0980 C   0  0  0  0  0  0  0  0  0  0  0  0
  142.3230  139.2720   90.6850 C   0  0  0  0  0  0  0  0  0  0  0  0
  141.4800  140.2810   90.3000 C   0  0  0  0  0  0  0  0  0  0  0  0
  140.1680  139.9900   89.9250 C   0  0  0  0  0  0  0  0  0  0  0  0
  139.7110  138.6610   89.9410 C   0  0  0  0  0  0  0  0  0  0  0  0
  140.5670  137.6270   90.3320 C   0  0  0  0  0  0  0  0  0  0  0  0
  139.9820  135.9420   90.3480 Cl  0  0  0  0  0  0  0  0  0  0  0  0
  141.8590  137.9110   90.7020 C   0  0  0  0  0  0  0  0  0  0  0  0
  143.3050  136.9640   91.2660 S   0  0  0  0  0  0  0  0  0  0  0  0
  146.6650  137.4030   90.1530 H   0  0  0  0  0  0  0  0  0  0  0  0
  148.4073  138.5096   92.2962 H   0  0  0  0  0  0  0  0  0  0  0  0
  148.9191  136.4525   93.1319 H   0  0  0  0  0  0  0  0  0  0  0  0
  147.7868  135.6952   91.9406 H   0  0  0  0  0  0  0  0  0  0  0  0
  151.1141  136.7499   92.5215 H   0  0  0  0  0  0  0  0  0  0  0  0
  151.6597  136.1706   90.8948 H   0  0  0  0  0  0  0  0  0  0  0  0
  150.6967  138.7480   91.6477 H   0  0  0  0  0  0  0  0  0  0  0  0
  151.2344  138.1525   90.0327 H   0  0  0  0  0  0  0  0  0  0  0  0
  148.9821  139.0338   89.9805 H   0  0  0  0  0  0  0  0  0  0  0  0
  147.9730  136.9912   89.0440 H   0  0  0  0  0  0  0  0  0  0  0  0
  149.6662  137.2119   88.5150 H   0  0  0  0  0  0  0  0  0  0  0  0
  148.5324  134.9349   89.9474 H   0  0  0  0  0  0  0  0  0  0  0  0
  150.2485  135.1812   89.4791 H   0  0  0  0  0  0  0  0  0  0  0  0
  144.1618  140.4032   91.1306 H   0  0  0  0  0  0  0  0  0  0  0  0
  141.8377  141.3211   90.2865 H   0  0  0  0  0  0  0  0  0  0  0  0
  139.4913  140.8007   89.6169 H   0  0  0  0  0  0  0  0  0  0  0  0
  138.6763  138.4336   89.6449 H   0  0  0  0  0  0  0  0  0  0  0  0
  1  2  2  0
  2  3  1  0
  3  4  1  0
  4  5  1  0
  5  6  1  0
  6  7  1  0
  7  8  1  0
  8  9  1  0
  9 10  1  0
 10 11  1  0
  2 12  1  0
 12 13  2  0
 13 14  1  0
 14 15  2  0
 15 16  1  0
 16 17  2  0
 17 18  1  0
 18 19  1  0
 18 20  2  0
 20 21  1  0
  9  4  1  0
 21 12  1  0
 11  6  1  0
 20 14  1  0
  3 22  1  0
  4 23  1  1
  5 24  1  0
  5 25  1  0
  7 26  1  0
  7 27  1  0
  8 28  1  0
  8 29  1  0
  9 30  1  0
 10 31  1  0
 10 32  1  0
 11 33  1  0
 11 34  1  0
 13 35  1  0
 15 36  1  0
 16 37  1  0
 17 38  1  0
M  END
>  <meeko>  (5)
{"is_sidechain": false}

>  <source_group>  (5)
CHRNA7 canonical

>  <source_system>  (5)
CHRNA7_encenicline

>  <source_run>  (5)
canonical_obabel_seed2207_ex32

>  <source_seed>  (5)
2207

>  <vina_pose_rank>  (5)
5

>  <vina_affinity_kcal_mol>  (5)
-7.532

>  <vina_rmsd_to_crystal_angstrom>  (5)
8.1362000000000005

$$$$
CHRNA7_encenicline__canonical_obabel_seed2207_ex32__pose06
     RDKit          3D

 38 41  0  0  0  0  0  0  0  0999 V2000
  144.8900  140.7020   91.1740 O   0  0  0  0  0  0  0  0  0  0  0  0
  144.2850  139.7490   90.8160 C   0  0  0  0  0  0  0  0  0  0  0  0
  144.8920  138.4350   90.9050 N   0  0  0  0  0  0  0  0  0  0  0  0
  146.2670  138.3030   91.4390 C   0  0  1  0  0  0  0  0  0  0  0  0
  146.3320  137.1300   92.4370 C   0  0  0  0  0  0  0  0  0  0  0  0
  147.2710  136.1760   92.0360 N   0  0  0  0  0  0  0  0  0  0  0  0
  148.5180  136.7510   91.9170 C   0  0  0  0  0  0  0  0  0  0  0  0
  148.5150  137.8610   90.9090 C   0  0  0  0  0  0  0  0  0  0  0  0
  147.2020  138.0290   90.3520 C   0  0  0  0  0  0  0  0  0  0  0  0
  146.8090  136.7760   89.7120 C   0  0  0  0  0  0  0  0  0  0  0  0
  146.8890  135.6260   90.7880 C   0  0  0  0  0  0  0  0  0  0  0  0
  142.8640  139.9150   90.2670 C   0  0  0  0  0  0  0  0  0  0  0  0
  141.7730  140.2640   90.9880 C   0  0  0  0  0  0  0  0  0  0  0  0
  140.5020  140.3830   90.3320 C   0  0  0  0  0  0  0  0  0  0  0  0
  139.3110  140.7270   90.9140 C   0  0  0  0  0  0  0  0  0  0  0  0
  138.1510  140.8000   90.1420 C   0  0  0  0  0  0  0  0  0  0  0  0
  138.2050  140.5210   88.7660 C   0  0  0  0  0  0  0  0  0  0  0  0
  139.4180  140.1700   88.1650 C   0  0  0  0  0  0  0  0  0  0  0  0
  139.4800  139.8190   86.4180 Cl  0  0  0  0  0  0  0  0  0  0  0  0
  140.5610  140.0970   88.9240 C   0  0  0  0  0  0  0  0  0  0  0  0
  142.3120  139.7030   88.6300 S   0  0  0  0  0  0  0  0  0  0  0  0
  144.3950  137.6380   90.6120 H   0  0  0  0  0  0  0  0  0  0  0  0
  146.5362  139.2443   91.9404 H   0  0  0  0  0  0  0  0  0  0  0  0
  146.6142  137.5169   93.4273 H   0  0  0  0  0  0  0  0  0  0  0  0
  145.3429  136.6502   92.4751 H   0  0  0  0  0  0  0  0  0  0  0  0
  148.8201  137.1558   92.8942 H   0  0  0  0  0  0  0  0  0  0  0  0
  149.2245  135.9785   91.5790 H   0  0  0  0  0  0  0  0  0  0  0  0
  148.8230  138.7963   91.3992 H   0  0  0  0  0  0  0  0  0  0  0  0
  149.2160  137.6093   90.0996 H   0  0  0  0  0  0  0  0  0  0  0  0
  147.1970  138.8538   89.6242 H   0  0  0  0  0  0  0  0  0  0  0  0
  145.7802  136.8590   89.3316 H   0  0  0  0  0  0  0  0  0  0  0  0
  147.4792  136.5540   88.8685 H   0  0  0  0  0  0  0  0  0  0  0  0
  145.9046  135.1447   90.8848 H   0  0  0  0  0  0  0  0  0  0  0  0
  147.6319  134.8785   90.4728 H   0  0  0  0  0  0  0  0  0  0  0  0
  141.8597  140.4549   92.0678 H   0  0  0  0  0  0  0  0  0  0  0  0
  139.2688  140.9460   91.9912 H   0  0  0  0  0  0  0  0  0  0  0  0
  137.1947  141.0758   90.6104 H   0  0  0  0  0  0  0  0  0  0  0  0
  137.2895  140.5789   88.1590 H   0  0  0  0  0  0  0  0  0  0  0  0
  1  2  2  0
  2  3  1  0
  3  4  1  0
  4  5  1  0
  5  6  1  0
  6  7  1  0
  7  8  1  0
  8  9  1  0
  9 10  1  0
 10 11  1  0
  2 12  1  0
 12 13  2  0
 13 14  1  0
 14 15  2  0
 15 16  1  0
 16 17  2  0
 17 18  1  0
 18 19  1  0
 18 20  2  0
 20 21  1  0
  9  4  1  0
 21 12  1  0
 11  6  1  0
 20 14  1  0
  3 22  1  0
  4 23  1  1
  5 24  1  0
  5 25  1  0
  7 26  1  0
  7 27  1  0
  8 28  1  0
  8 29  1  0
  9 30  1  0
 10 31  1  0
 10 32  1  0
 11 33  1  0
 11 34  1  0
 13 35  1  0
 15 36  1  0
 16 37  1  0
 17 38  1  0
M  END
>  <meeko>  (6)
{"is_sidechain": false}

>  <source_group>  (6)
CHRNA7 canonical

>  <source_system>  (6)
CHRNA7_encenicline

>  <source_run>  (6)
canonical_obabel_seed2207_ex32

>  <source_seed>  (6)
2207

>  <vina_pose_rank>  (6)
6

>  <vina_affinity_kcal_mol>  (6)
-7.391

>  <vina_rmsd_to_crystal_angstrom>  (6)
7.8250000000000002

$$$$
CHRNA7_encenicline__canonical_obabel_seed2207_ex32__pose07
     RDKit          3D

 38 41  0  0  0  0  0  0  0  0999 V2000
  142.6980  140.2370   92.0690 O   0  0  0  0  0  0  0  0  0  0  0  0
  142.7840  139.4350   91.2010 C   0  0  0  0  0  0  0  0  0  0  0  0
  141.7020  139.2870   90.2480 N   0  0  0  0  0  0  0  0  0  0  0  0
  140.4980  140.1400   90.3730 C   0  0  1  0  0  0  0  0  0  0  0  0
  140.5420  141.2690   89.3250 C   0  0  0  0  0  0  0  0  0  0  0  0
  139.4250  141.2260   88.4870 N   0  0  0  0  0  0  0  0  0  0  0  0
  138.2670  141.3280   89.2270 C   0  0  0  0  0  0  0  0  0  0  0  0
  138.1520  140.2110   90.2220 C   0  0  0  0  0  0  0  0  0  0  0  0
  139.2960  139.3460   90.1380 C   0  0  0  0  0  0  0  0  0  0  0  0
  139.3630  138.8010   88.7840 C   0  0  0  0  0  0  0  0  0  0  0  0
  139.4150  140.0050   87.7690 C   0  0  0  0  0  0  0  0  0  0  0  0
  144.0420  138.5660   91.0950 C   0  0  0  0  0  0  0  0  0  0  0  0
  144.5270  137.7540   92.0620 C   0  0  0  0  0  0  0  0  0  0  0  0
  145.7200  136.9960   91.8150 C   0  0  0  0  0  0  0  0  0  0  0  0
  146.3350  136.1330   92.6830 C   0  0  0  0  0  0  0  0  0  0  0  0
  147.4970  135.4640   92.2980 C   0  0  0  0  0  0  0  0  0  0  0  0
  148.0370  135.6760   91.0180 C   0  0  0  0  0  0  0  0  0  0  0  0
  147.4140  136.5540   90.1270 C   0  0  0  0  0  0  0  0  0  0  0  0
  148.1030  136.8160   88.5030 Cl  0  0  0  0  0  0  0  0  0  0  0  0
  146.2690  137.2140   90.5040 C   0  0  0  0  0  0  0  0  0  0  0  0
  145.1290  138.4080   89.7440 S   0  0  0  0  0  0  0  0  0  0  0  0
  141.7670  138.6250   89.5220 H   0  0  0  0  0  0  0  0  0  0  0  0
  140.4781  140.5647   91.3875 H   0  0  0  0  0  0  0  0  0  0  0  0
  140.5641  142.2389   89.8435 H   0  0  0  0  0  0  0  0  0  0  0  0
  141.4439  141.1369   88.7093 H   0  0  0  0  0  0  0  0  0  0  0  0
  138.2696  142.2875   89.7650 H   0  0  0  0  0  0  0  0  0  0  0  0
  137.4107  141.2680   88.5392 H   0  0  0  0  0  0  0  0  0  0  0  0
  138.0907  140.6335   91.2358 H   0  0  0  0  0  0  0  0  0  0  0  0
  137.2463  139.6274   90.0004 H   0  0  0  0  0  0  0  0  0  0  0  0
  139.2195  138.5363   90.8787 H   0  0  0  0  0  0  0  0  0  0  0  0
  140.2670  138.1837   88.6757 H   0  0  0  0  0  0  0  0  0  0  0  0
  138.4819  138.1737   88.5836 H   0  0  0  0  0  0  0  0  0  0  0  0
  140.3269  139.9310   87.1583 H   0  0  0  0  0  0  0  0  0  0  0  0
  138.5320  139.9714   87.1138 H   0  0  0  0  0  0  0  0  0  0  0  0
  144.0108  137.6754   93.0302 H   0  0  0  0  0  0  0  0  0  0  0  0
  145.9121  135.9673   93.6848 H   0  0  0  0  0  0  0  0  0  0  0  0
  147.9901  134.7712   92.9957 H   0  0  0  0  0  0  0  0  0  0  0  0
  148.9539  135.1486   90.7162 H   0  0  0  0  0  0  0  0  0  0  0  0
  1  2  2  0
  2  3  1  0
  3  4  1  0
  4  5  1  0
  5  6  1  0
  6  7  1  0
  7  8  1  0
  8  9  1  0
  9 10  1  0
 10 11  1  0
  2 12  1  0
 12 13  2  0
 13 14  1  0
 14 15  2  0
 15 16  1  0
 16 17  2  0
 17 18  1  0
 18 19  1  0
 18 20  2  0
 20 21  1  0
  9  4  1  0
 21 12  1  0
 11  6  1  0
 20 14  1  0
  3 22  1  0
  4 23  1  1
  5 24  1  0
  5 25  1  0
  7 26  1  0
  7 27  1  0
  8 28  1  0
  8 29  1  0
  9 30  1  0
 10 31  1  0
 10 32  1  0
 11 33  1  0
 11 34  1  0
 13 35  1  0
 15 36  1  0
 16 37  1  0
 17 38  1  0
M  END
>  <meeko>  (7)
{"is_sidechain": false}

>  <source_group>  (7)
CHRNA7 canonical

>  <source_system>  (7)
CHRNA7_encenicline

>  <source_run>  (7)
canonical_obabel_seed2207_ex32

>  <source_seed>  (7)
2207

>  <vina_pose_rank>  (7)
7

>  <vina_affinity_kcal_mol>  (7)
-7.3899999999999997

>  <vina_rmsd_to_crystal_angstrom>  (7)
1.7598

$$$$
CHRNA7_encenicline__canonical_obabel_seed2207_ex32__pose08
     RDKit          3D

 38 41  0  0  0  0  0  0  0  0999 V2000
  146.2340  134.9380   92.2000 O   0  0  0  0  0  0  0  0  0  0  0  0
  146.1260  135.9090   91.5320 C   0  0  0  0  0  0  0  0  0  0  0  0
  147.3120  136.5620   91.0130 N   0  0  0  0  0  0  0  0  0  0  0  0
  148.6480  136.0060   91.3310 C   0  0  1  0  0  0  0  0  0  0  0  0
  149.3690  135.5970   90.0320 C   0  0  0  0  0  0  0  0  0  0  0  0
  150.5840  136.2730   89.8930 N   0  0  0  0  0  0  0  0  0  0  0  0
  151.4000  136.0180   90.9740 C   0  0  0  0  0  0  0  0  0  0  0  0
  150.7610  136.4570   92.2580 C   0  0  0  0  0  0  0  0  0  0  0  0
  149.4610  137.0130   92.0070 C   0  0  0  0  0  0  0  0  0  0  0  0
  149.6140  138.1570   91.1110 C   0  0  0  0  0  0  0  0  0  0  0  0
  150.3470  137.6660   89.8050 C   0  0  0  0  0  0  0  0  0  0  0  0
  144.7320  136.4630   91.2180 C   0  0  0  0  0  0  0  0  0  0  0  0
  143.6040  135.7300   91.0730 C   0  0  0  0  0  0  0  0  0  0  0  0
  142.3640  136.3930   90.7810 C   0  0  0  0  0  0  0  0  0  0  0  0
  141.1420  135.7990   90.6070 C   0  0  0  0  0  0  0  0  0  0  0  0
  140.0200  136.5800   90.3250 C   0  0  0  0  0  0  0  0  0  0  0  0
  140.1450  137.9760   90.2190 C   0  0  0  0  0  0  0  0  0  0  0  0
  141.3900  138.5880   90.3970 C   0  0  0  0  0  0  0  0  0  0  0  0
  141.5410  140.3590   90.2640 Cl  0  0  0  0  0  0  0  0  0  0  0  0
  142.4960  137.8210   90.6740 C   0  0  0  0  0  0  0  0  0  0  0  0
  144.2630  138.1220   90.9790 S   0  0  0  0  0  0  0  0  0  0  0  0
  147.2310  137.3680   90.4550 H   0  0  0  0  0  0  0  0  0  0  0  0
  148.5133  135.1300   91.9825 H   0  0  0  0  0  0  0  0  0  0  0  0
  149.5616  134.5142   90.0544 H   0  0  0  0  0  0  0  0  0  0  0  0
  148.7254  135.8595   89.1794 H   0  0  0  0  0  0  0  0  0  0  0  0
  151.5995  134.9374   91.0247 H   0  0  0  0  0  0  0  0  0  0  0  0
  152.3352  136.5820   90.8423 H   0  0  0  0  0  0  0  0  0  0  0  0
  150.6611  135.5902   92.9278 H   0  0  0  0  0  0  0  0  0  0  0  0
  151.3932  137.2260   92.7259 H   0  0  0  0  0  0  0  0  0  0  0  0
  148.9866  137.3206   92.9506 H   0  0  0  0  0  0  0  0  0  0  0  0
  148.6246  138.5623   90.8525 H   0  0  0  0  0  0  0  0  0  0  0  0
  150.2010  138.9475   91.6014 H   0  0  0  0  0  0  0  0  0  0  0  0
  149.7157  137.8760   88.9290 H   0  0  0  0  0  0  0  0  0  0  0  0
  151.3056  138.1955   89.7011 H   0  0  0  0  0  0  0  0  0  0  0  0
  143.6365  134.6355   91.1779 H   0  0  0  0  0  0  0  0  0  0  0  0
  141.0449  134.7064   90.6895 H   0  0  0  0  0  0  0  0  0  0  0  0
  139.0385  136.1032   90.1858 H   0  0  0  0  0  0  0  0  0  0  0  0
  139.2600  138.5897   89.9951 H   0  0  0  0  0  0  0  0  0  0  0  0
  1  2  2  0
  2  3  1  0
  3  4  1  0
  4  5  1  0
  5  6  1  0
  6  7  1  0
  7  8  1  0
  8  9  1  0
  9 10  1  0
 10 11  1  0
  2 12  1  0
 12 13  2  0
 13 14  1  0
 14 15  2  0
 15 16  1  0
 16 17  2  0
 17 18  1  0
 18 19  1  0
 18 20  2  0
 20 21  1  0
  9  4  1  0
 21 12  1  0
 11  6  1  0
 20 14  1  0
  3 22  1  0
  4 23  1  1
  5 24  1  0
  5 25  1  0
  7 26  1  0
  7 27  1  0
  8 28  1  0
  8 29  1  0
  9 30  1  0
 10 31  1  0
 10 32  1  0
 11 33  1  0
 11 34  1  0
 13 35  1  0
 15 36  1  0
 16 37  1  0
 17 38  1  0
M  END
>  <meeko>  (8)
{"is_sidechain": false}

>  <source_group>  (8)
CHRNA7 canonical

>  <source_system>  (8)
CHRNA7_encenicline

>  <source_run>  (8)
canonical_obabel_seed2207_ex32

>  <source_seed>  (8)
2207

>  <vina_pose_rank>  (8)
8

>  <vina_affinity_kcal_mol>  (8)
-7.3600000000000003

>  <vina_rmsd_to_crystal_angstrom>  (8)
8.2833000000000006

$$$$
CHRNA7_encenicline__canonical_obabel_seed2207_ex32__pose09
     RDKit          3D

 38 41  0  0  0  0  0  0  0  0999 V2000
  140.1530  136.9220   90.3320 O   0  0  0  0  0  0  0  0  0  0  0  0
  141.0490  137.6880   90.2250 C   0  0  0  0  0  0  0  0  0  0  0  0
  140.8190  138.9880   89.6250 N   0  0  0  0  0  0  0  0  0  0  0  0
  139.4610  139.3400   89.1500 C   0  0  1  0  0  0  0  0  0  0  0  0
  138.5580  139.6870   90.3500 C   0  0  0  0  0  0  0  0  0  0  0  0
  138.0470  140.9830   90.2400 N   0  0  0  0  0  0  0  0  0  0  0  0
  137.3320  141.1190   89.0700 C   0  0  0  0  0  0  0  0  0  0  0  0
  138.1900  140.8480   87.8700 C   0  0  0  0  0  0  0  0  0  0  0  0
  139.5250  140.5070   88.2750 C   0  0  0  0  0  0  0  0  0  0  0  0
  140.0750  141.6240   89.0380 C   0  0  0  0  0  0  0  0  0  0  0  0
  139.1110  141.9180   90.2490 C   0  0  0  0  0  0  0  0  0  0  0  0
  142.4440  137.2970   90.7250 C   0  0  0  0  0  0  0  0  0  0  0  0
  143.4240  138.1560   91.0900 C   0  0  0  0  0  0  0  0  0  0  0  0
  144.6840  137.6390   91.5430 C   0  0  0  0  0  0  0  0  0  0  0  0
  145.7690  138.3700   91.9470 C   0  0  0  0  0  0  0  0  0  0  0  0
  146.9330  137.7220   92.3610 C   0  0  0  0  0  0  0  0  0  0  0  0
  146.9920  136.3180   92.3640 C   0  0  0  0  0  0  0  0  0  0  0  0
  145.8870  135.5650   91.9540 C   0  0  0  0  0  0  0  0  0  0  0  0
  145.9670  133.7840   91.9620 Cl  0  0  0  0  0  0  0  0  0  0  0  0
  144.7400  136.2020   91.5450 C   0  0  0  0  0  0  0  0  0  0  0  0
  143.0990  135.6990   90.9440 S   0  0  0  0  0  0  0  0  0  0  0  0
  141.5580  139.6310   89.5350 H   0  0  0  0  0  0  0  0  0  0  0  0
  139.0506  138.4786   88.6027 H   0  0  0  0  0  0  0  0  0  0  0  0
  137.7216  138.9736   90.3877 H   0  0  0  0  0  0  0  0  0  0  0  0
  139.1607  139.6271   91.2682 H   0  0  0  0  0  0  0  0  0  0  0  0
  136.4932  140.4074   89.0783 H   0  0  0  0  0  0  0  0  0  0  0  0
  136.9650  142.1541   89.0067 H   0  0  0  0  0  0  0  0  0  0  0  0
  137.7601  140.0122   87.2985 H   0  0  0  0  0  0  0  0  0  0  0  0
  138.2269  141.7534   87.2463 H   0  0  0  0  0  0  0  0  0  0  0  0
  140.1501  140.2943   87.3952 H   0  0  0  0  0  0  0  0  0  0  0  0
  141.0749  141.3612   89.4138 H   0  0  0  0  0  0  0  0  0  0  0  0
  140.1616  142.5142   88.3977 H   0  0  0  0  0  0  0  0  0  0  0  0
  139.6694  141.8297   91.1926 H   0  0  0  0  0  0  0  0  0  0  0  0
  138.7062  142.9367   90.1580 H   0  0  0  0  0  0  0  0  0  0  0  0
  143.2562  139.2420   91.0399 H   0  0  0  0  0  0  0  0  0  0  0  0
  145.7228  139.4690   91.9451 H   0  0  0  0  0  0  0  0  0  0  0  0
  147.8044  138.3099   92.6850 H   0  0  0  0  0  0  0  0  0  0  0  0
  147.9111  135.8091   92.6901 H   0  0  0  0  0  0  0  0  0  0  0  0
  1  2  2  0
  2  3  1  0
  3  4  1  0
  4  5  1  0
  5  6  1  0
  6  7  1  0
  7  8  1  0
  8  9  1  0
  9 10  1  0
 10 11  1  0
  2 12  1  0
 12 13  2  0
 13 14  1  0
 14 15  2  0
 15 16  1  0
 16 17  2  0
 17 18  1  0
 18 19  1  0
 18 20  2  0
 20 21  1  0
  9  4  1  0
 21 12  1  0
 11  6  1  0
 20 14  1  0
  3 22  1  0
  4 23  1  6
  5 24  1  0
  5 25  1  0
  7 26  1  0
  7 27  1  0
  8 28  1  0
  8 29  1  0
  9 30  1  0
 10 31  1  0
 10 32  1  0
 11 33  1  0
 11 34  1  0
 13 35  1  0
 15 36  1  0
 16 37  1  0
 17 38  1  0
M  END
>  <meeko>  (9)
{"is_sidechain": false}

>  <source_group>  (9)
CHRNA7 canonical

>  <source_system>  (9)
CHRNA7_encenicline

>  <source_run>  (9)
canonical_obabel_seed2207_ex32

>  <source_seed>  (9)
2207

>  <vina_pose_rank>  (9)
9

>  <vina_affinity_kcal_mol>  (9)
-7.218

>  <vina_rmsd_to_crystal_angstrom>  (9)
2.7258

$$$$
CHRNA7_encenicline__canonical_obabel_seed2207_ex32__pose10
     RDKit          3D

 38 41  0  0  0  0  0  0  0  0999 V2000
  144.9140  140.7860   91.1590 O   0  0  0  0  0  0  0  0  0  0  0  0
  144.3100  139.8520   90.7510 C   0  0  0  0  0  0  0  0  0  0  0  0
  144.9470  138.5510   90.6940 N   0  0  0  0  0  0  0  0  0  0  0  0
  146.3500  138.4070   91.1440 C   0  0  1  0  0  0  0  0  0  0  0  0
  146.4210  137.4390   92.3420 C   0  0  0  0  0  0  0  0  0  0  0  0
  147.2540  136.3520   92.0670 N   0  0  0  0  0  0  0  0  0  0  0  0
  148.5230  136.7890   91.7510 C   0  0  0  0  0  0  0  0  0  0  0  0
  148.5090  137.6880   90.5500 C   0  0  0  0  0  0  0  0  0  0  0  0
  147.1680  137.8580   90.0660 C   0  0  0  0  0  0  0  0  0  0  0  0
  146.6360  136.5440   89.7100 C   0  0  0  0  0  0  0  0  0  0  0  0
  146.7300  135.6130   90.9780 C   0  0  0  0  0  0  0  0  0  0  0  0
  142.8590  140.0310   90.2920 C   0  0  0  0  0  0  0  0  0  0  0  0
  142.4460  140.1730   89.0110 C   0  0  0  0  0  0  0  0  0  0  0  0
  141.0470  140.3300   88.7340 C   0  0  0  0  0  0  0  0  0  0  0  0
  140.4700  140.4820   87.5010 C   0  0  0  0  0  0  0  0  0  0  0  0
  139.0870  140.6260   87.3900 C   0  0  0  0  0  0  0  0  0  0  0  0
  138.2840  140.6140   88.5430 C   0  0  0  0  0  0  0  0  0  0  0  0
  138.8660  140.4580   89.8050 C   0  0  0  0  0  0  0  0  0  0  0  0
  137.8430  140.4420   91.2650 Cl  0  0  0  0  0  0  0  0  0  0  0  0
  140.2290  140.3170   89.9170 C   0  0  0  0  0  0  0  0  0  0  0  0
  141.4210  140.0940   91.2710 S   0  0  0  0  0  0  0  0  0  0  0  0
  144.4510  137.7700   90.3590 H   0  0  0  0  0  0  0  0  0  0  0  0
  146.7241  139.3998   91.4344 H   0  0  0  0  0  0  0  0  0  0  0  0
  146.8133  137.9790   93.2163 H   0  0  0  0  0  0  0  0  0  0  0  0
  145.4083  137.0588   92.5419 H   0  0  0  0  0  0  0  0  0  0  0  0
  148.9346  137.3427   92.6078 H   0  0  0  0  0  0  0  0  0  0  0  0
  149.1438  135.9110   91.5191 H   0  0  0  0  0  0  0  0  0  0  0  0
  148.9211  138.6694   90.8274 H   0  0  0  0  0  0  0  0  0  0  0  0
  149.1190  137.2318   89.7564 H   0  0  0  0  0  0  0  0  0  0  0  0
  147.1577  138.5298   89.1950 H   0  0  0  0  0  0  0  0  0  0  0  0
  145.5862  136.6402   89.3960 H   0  0  0  0  0  0  0  0  0  0  0  0
  147.2141  136.1131   88.8793 H   0  0  0  0  0  0  0  0  0  0  0  0
  145.7272  135.2413   91.2355 H   0  0  0  0  0  0  0  0  0  0  0  0
  147.3912  134.7613   90.7601 H   0  0  0  0  0  0  0  0  0  0  0  0
  143.1769  140.1681   88.1890 H   0  0  0  0  0  0  0  0  0  0  0  0
  141.0977  140.4905   86.5977 H   0  0  0  0  0  0  0  0  0  0  0  0
  138.6248  140.7490   86.3994 H   0  0  0  0  0  0  0  0  0  0  0  0
  137.1936  140.7277   88.4526 H   0  0  0  0  0  0  0  0  0  0  0  0
  1  2  2  0
  2  3  1  0
  3  4  1  0
  4  5  1  0
  5  6  1  0
  6  7  1  0
  7  8  1  0
  8  9  1  0
  9 10  1  0
 10 11  1  0
  2 12  1  0
 12 13  2  0
 13 14  1  0
 14 15  2  0
 15 16  1  0
 16 17  2  0
 17 18  1  0
 18 19  1  0
 18 20  2  0
 20 21  1  0
  9  4  1  0
 21 12  1  0
 11  6  1  0
 20 14  1  0
  3 22  1  0
  4 23  1  1
  5 24  1  0
  5 25  1  0
  7 26  1  0
  7 27  1  0
  8 28  1  0
  8 29  1  0
  9 30  1  0
 10 31  1  0
 10 32  1  0
 11 33  1  0
 11 34  1  0
 13 35  1  0
 15 36  1  0
 16 37  1  0
 17 38  1  0
M  END
>  <meeko>  (10)
{"is_sidechain": false}

>  <source_group>  (10)
CHRNA7 canonical

>  <source_system>  (10)
CHRNA7_encenicline

>  <source_run>  (10)
canonical_obabel_seed2207_ex32

>  <source_seed>  (10)
2207

>  <vina_pose_rank>  (10)
10

>  <vina_affinity_kcal_mol>  (10)
-7.2009999999999996

>  <vina_rmsd_to_crystal_angstrom>  (10)
7.8884999999999996

$$$$
CHRNA7_encenicline__canonical_obabel_seed2207_ex32__pose11
     RDKit          3D

 38 41  0  0  0  0  0  0  0  0999 V2000
  148.1940  135.2420   92.7140 O   0  0  0  0  0  0  0  0  0  0  0  0
  148.1330  136.3040   92.1950 C   0  0  0  0  0  0  0  0  0  0  0  0
  149.3520  137.0280   91.8890 N   0  0  0  0  0  0  0  0  0  0  0  0
  150.6610  136.4280   92.2340 C   0  0  1  0  0  0  0  0  0  0  0  0
  151.1240  135.4890   91.1030 C   0  0  0  0  0  0  0  0  0  0  0  0
  152.3610  135.8880   90.5890 N   0  0  0  0  0  0  0  0  0  0  0  0
  153.3100  135.9100   91.5880 C   0  0  0  0  0  0  0  0  0  0  0  0
  152.9290  136.8590   92.6850 C   0  0  0  0  0  0  0  0  0  0  0  0
  151.6640  137.4760   92.3960 C   0  0  0  0  0  0  0  0  0  0  0  0
  151.7820  138.1990   91.1330 C   0  0  0  0  0  0  0  0  0  0  0  0
  152.2480  137.1810   90.0230 C   0  0  0  0  0  0  0  0  0  0  0  0
  146.7650  136.9010   91.8480 C   0  0  0  0  0  0  0  0  0  0  0  0
  146.4930  138.2170   91.6870 C   0  0  0  0  0  0  0  0  0  0  0  0
  145.1570  138.6260   91.3590 C   0  0  0  0  0  0  0  0  0  0  0  0
  144.7210  139.9100   91.1620 C   0  0  0  0  0  0  0  0  0  0  0  0
  143.3840  140.1530   90.8490 C   0  0  0  0  0  0  0  0  0  0  0  0
  142.4820  139.0810   90.7360 C   0  0  0  0  0  0  0  0  0  0  0  0
  142.9210  137.7680   90.9350 C   0  0  0  0  0  0  0  0  0  0  0  0
  141.7740  136.4110   90.7870 Cl  0  0  0  0  0  0  0  0  0  0  0  0
  144.2380  137.5260   91.2430 C   0  0  0  0  0  0  0  0  0  0  0  0
  145.2620  136.0630   91.5830 S   0  0  0  0  0  0  0  0  0  0  0  0
  149.3100  137.9100   91.4550 H   0  0  0  0  0  0  0  0  0  0  0  0
  150.5475  135.8647   93.1720 H   0  0  0  0  0  0  0  0  0  0  0  0
  151.2130  134.4667   91.4993 H   0  0  0  0  0  0  0  0  0  0  0  0
  150.3813  135.5276   90.2925 H   0  0  0  0  0  0  0  0  0  0  0  0
  153.4101  134.8986   92.0087 H   0  0  0  0  0  0  0  0  0  0  0  0
  154.2621  136.2484   91.1532 H   0  0  0  0  0  0  0  0  0  0  0  0
  152.8545  136.3061   93.6330 H   0  0  0  0  0  0  0  0  0  0  0  0
  153.6982  137.6414   92.7634 H   0  0  0  0  0  0  0  0  0  0  0  0
  151.3767  138.1598   93.2083 H   0  0  0  0  0  0  0  0  0  0  0  0
  150.8077  138.6292   90.8580 H   0  0  0  0  0  0  0  0  0  0  0  0
  152.5127  139.0155   91.2300 H   0  0  0  0  0  0  0  0  0  0  0  0
  151.5087  137.1620   89.2087 H   0  0  0  0  0  0  0  0  0  0  0  0
  153.2239  137.4940   89.6234 H   0  0  0  0  0  0  0  0  0  0  0  0
  147.2891  138.9667   91.8065 H   0  0  0  0  0  0  0  0  0  0  0  0
  145.4261  140.7496   91.2508 H   0  0  0  0  0  0  0  0  0  0  0  0
  143.0351  141.1841   90.6905 H   0  0  0  0  0  0  0  0  0  0  0  0
  141.4275  139.2753   90.4903 H   0  0  0  0  0  0  0  0  0  0  0  0
  1  2  2  0
  2  3  1  0
  3  4  1  0
  4  5  1  0
  5  6  1  0
  6  7  1  0
  7  8  1  0
  8  9  1  0
  9 10  1  0
 10 11  1  0
  2 12  1  0
 12 13  2  0
 13 14  1  0
 14 15  2  0
 15 16  1  0
 16 17  2  0
 17 18  1  0
 18 19  1  0
 18 20  2  0
 20 21  1  0
  9  4  1  0
 21 12  1  0
 11  6  1  0
 20 14  1  0
  3 22  1  0
  4 23  1  1
  5 24  1  0
  5 25  1  0
  7 26  1  0
  7 27  1  0
  8 28  1  0
  8 29  1  0
  9 30  1  0
 10 31  1  0
 10 32  1  0
 11 33  1  0
 11 34  1  0
 13 35  1  0
 15 36  1  0
 16 37  1  0
 17 38  1  0
M  END
>  <meeko>  (11)
{"is_sidechain": false}

>  <source_group>  (11)
CHRNA7 canonical

>  <source_system>  (11)
CHRNA7_encenicline

>  <source_run>  (11)
canonical_obabel_seed2207_ex32

>  <source_seed>  (11)
2207

>  <vina_pose_rank>  (11)
11

>  <vina_affinity_kcal_mol>  (11)
-6.9349999999999996

>  <vina_rmsd_to_crystal_angstrom>  (11)
9.3956999999999997

$$$$
