CHRNA7_encenicline__canonical_obabel_seed2207_ex32__pose01


 22 25  0  0  0  0  0  0  0  0999 V2000
  143.6360  140.7380   90.0410 O   0  0  0  0  0  0  0  0  0  0  0  0
  143.0860  139.7200   90.2940 C   0  0  0  0  0  0  0  0  0  0  0  0
  141.6410  139.6400   90.2030 N   0  0  0  0  0  0  0  0  0  0  0  0
  141.1770  138.7970   90.4090 H   0  0  0  0  0  0  0  0  0  0  0  0
  143.9100  138.4960   90.7110 C   0  0  0  0  0  0  0  0  0  0  0  0
  143.4170  137.2670   90.9860 C   0  0  0  0  0  0  0  0  0  0  0  0
  144.3170  136.2140   91.3630 C   0  0  0  0  0  0  0  0  0  0  0  0
  143.9800  134.9220   91.6690 C   0  0  0  0  0  0  0  0  0  0  0  0
  144.9720  134.0060   92.0220 C   0  0  0  0  0  0  0  0  0  0  0  0
  146.3170  134.4090   92.0620 C   0  0  0  0  0  0  0  0  0  0  0  0
  146.6680  135.7260   91.7500 C   0  0  0  0  0  0  0  0  0  0  0  0
  148.3770  136.2310   91.8010 Cl  0  0  0  0  0  0  0  0  0  0  0  0
  145.6930  136.6300   91.4030 C   0  0  0  0  0  0  0  0  0  0  0  0
  145.6330  138.3840   90.9280 S   0  0  0  0  0  0  0  0  0  0  0  0
  140.8690  140.8370   89.7980 C   0  0  0  0  0  0  0  0  0  0  0  0
  140.5350  140.7620   88.2950 C   0  0  0  0  0  0  0  0  0  0  0  0
  139.1550  140.8050   88.0800 N   0  0  0  0  0  0  0  0  0  0  0  0
  138.6220  141.9570   88.6150 C   0  0  0  0  0  0  0  0  0  0  0  0
  138.8720  142.0420   90.0920 C   0  0  0  0  0  0  0  0  0  0  0  0
  139.6150  140.8980   90.5410 C   0  0  0  0  0  0  0  0  0  0  0  0
  138.8410  139.6970   90.2370 C   0  0  0  0  0  0  0  0  0  0  0  0
  138.5440  139.6810   88.6890 C   0  0  0  0  0  0  0  0  0  0  0  0
  1  2  2  0
  2  3  1  0
  3 15  1  0
 15 16  1  0
 16 17  1  0
 17 18  1  0
 18 19  1  0
 19 20  1  0
 20 21  1  0
 21 22  1  0
  2  5  1  0
  5  6  2  0
  6  7  1  0
  7  8  2  0
  8  9  1  0
  9 10  2  0
 10 11  1  0
 11 12  1  0
 11 13  2  0
 13 14  1  0
 20 15  1  0
 14  5  1  0
 22 17  1  0
 13  7  1  0
  3  4  1  0
M  END
> <meeko>
{"is_sidechain": false}

> <source_group>
CHRNA7 canonical

> <source_system>
CHRNA7_encenicline

> <source_run>
canonical_obabel_seed2207_ex32

> <source_seed>
2207

> <vina_pose_rank>
1

> <vina_affinity_kcal_mol>
-9.859

> <vina_rmsd_to_crystal_angstrom>
0.30709999999999998

> <minimizedAffinity>
-9.85384

> <CNNscore>
0.9534022808

> <CNNaffinity>
6.9218554497

> <CNN_VS>
6.5993127823

> <CNNaffinity_variance>
0.0203786921

$$$$
CHRNA7_encenicline__canonical_obabel_seed2207_ex32__pose02


 22 25  0  0  0  0  0  0  0  0999 V2000
  143.8410  140.8590   89.9570 O   0  0  0  0  0  0  0  0  0  0  0  0
  143.3520  139.8100   90.2100 C   0  0  0  0  0  0  0  0  0  0  0  0
  141.9190  139.6330   90.0770 N   0  0  0  0  0  0  0  0  0  0  0  0
  141.5060  138.7640   90.2830 H   0  0  0  0  0  0  0  0  0  0  0  0
  144.2420  138.6510   90.6720 C   0  0  0  0  0  0  0  0  0  0  0  0
  145.5790  138.7100   90.8710 C   0  0  0  0  0  0  0  0  0  0  0  0
  146.2800  137.5360   91.3090 C   0  0  0  0  0  0  0  0  0  0  0  0
  147.6230  137.4320   91.5570 C   0  0  0  0  0  0  0  0  0  0  0  0
  148.1630  136.2160   91.9780 C   0  0  0  0  0  0  0  0  0  0  0  0
  147.3280  135.0980   92.1480 C   0  0  0  0  0  0  0  0  0  0  0  0
  145.9560  135.1990   91.8980 C   0  0  0  0  0  0  0  0  0  0  0  0
  144.9020  133.7770   92.1170 Cl  0  0  0  0  0  0  0  0  0  0  0  0
  145.4220  136.3950   91.4820 C   0  0  0  0  0  0  0  0  0  0  0  0
  143.7710  137.0170   91.0440 S   0  0  0  0  0  0  0  0  0  0  0  0
  141.0830  140.7700   89.6290 C   0  0  0  0  0  0  0  0  0  0  0  0
  140.6700  140.5700   88.1570 C   0  0  0  0  0  0  0  0  0  0  0  0
  139.2790  140.5510   88.0200 N   0  0  0  0  0  0  0  0  0  0  0  0
  138.7350  141.7240   88.4980 C   0  0  0  0  0  0  0  0  0  0  0  0
  139.0620  141.9290   89.9470 C   0  0  0  0  0  0  0  0  0  0  0  0
  139.8700  140.8470   90.4370 C   0  0  0  0  0  0  0  0  0  0  0  0
  139.1250  139.6030   90.2680 C   0  0  0  0  0  0  0  0  0  0  0  0
  138.7440  139.4580   88.7450 C   0  0  0  0  0  0  0  0  0  0  0  0
  1  2  2  0
  2  3  1  0
  3 15  1  0
 15 16  1  0
 16 17  1  0
 17 18  1  0
 18 19  1  0
 19 20  1  0
 20 21  1  0
 21 22  1  0
  2  5  1  0
  5  6  2  0
  6  7  1  0
  7  8  2  0
  8  9  1  0
  9 10  2  0
 10 11  1  0
 11 12  1  0
 11 13  2  0
 13 14  1  0
 20 15  1  0
 14  5  1  0
 22 17  1  0
 13  7  1  0
  3  4  1  0
M  END
> <meeko>
{"is_sidechain": false}

> <source_group>
CHRNA7 canonical

> <source_system>
CHRNA7_encenicline

> <source_run>
canonical_obabel_seed2207_ex32

> <source_seed>
2207

> <vina_pose_rank>
2

> <vina_affinity_kcal_mol>
-9.1210000000000004

> <vina_rmsd_to_crystal_angstrom>
1.8479000000000001

> <minimizedAffinity>
-9.13154

> <CNNscore>
0.9606614709

> <CNNaffinity>
7.1223511696

> <CNN_VS>
6.8421683311

> <CNNaffinity_variance>
0.0029911792

$$$$
CHRNA7_encenicline__canonical_obabel_seed2207_ex32__pose03


 22 25  0  0  0  0  0  0  0  0999 V2000
  140.1430  136.6340   90.2480 O   0  0  0  0  0  0  0  0  0  0  0  0
  140.9790  137.4530   90.4330 C   0  0  0  0  0  0  0  0  0  0  0  0
  140.6600  138.8570   90.2670 N   0  0  0  0  0  0  0  0  0  0  0  0
  141.3480  139.5440   90.4210 H   0  0  0  0  0  0  0  0  0  0  0  0
  142.3880  137.0170   90.8500 C   0  0  0  0  0  0  0  0  0  0  0  0
  142.7780  135.7490   91.1160 C   0  0  0  0  0  0  0  0  0  0  0  0
  144.1390  135.4940   91.4940 C   0  0  0  0  0  0  0  0  0  0  0  0
  144.6890  134.2750   91.7920 C   0  0  0  0  0  0  0  0  0  0  0  0
  146.0350  134.1850   92.1470 C   0  0  0  0  0  0  0  0  0  0  0  0
  146.8270  135.3450   92.2000 C   0  0  0  0  0  0  0  0  0  0  0  0
  146.2720  136.5910   91.8970 C   0  0  0  0  0  0  0  0  0  0  0  0
  147.2820  138.0590   91.9640 Cl  0  0  0  0  0  0  0  0  0  0  0  0
  144.9460  136.6830   91.5470 C   0  0  0  0  0  0  0  0  0  0  0  0
  143.7970  138.0120   91.0810 S   0  0  0  0  0  0  0  0  0  0  0  0
  139.2910  139.2510   89.8640 C   0  0  0  0  0  0  0  0  0  0  0  0
  138.8090  140.4350   90.7250 C   0  0  0  0  0  0  0  0  0  0  0  0
  138.4810  141.5370   89.9320 N   0  0  0  0  0  0  0  0  0  0  0  0
  137.5020  141.2000   89.0230 C   0  0  0  0  0  0  0  0  0  0  0  0
  137.9530  140.0890   88.1210 C   0  0  0  0  0  0  0  0  0  0  0  0
  139.2830  139.6710   88.4660 C   0  0  0  0  0  0  0  0  0  0  0  0
  140.1770  140.8180   88.3260 C   0  0  0  0  0  0  0  0  0  0  0  0
  139.6320  141.9830   89.2370 C   0  0  0  0  0  0  0  0  0  0  0  0
  1  2  2  0
  2  3  1  0
  3 15  1  0
 15 16  1  0
 16 17  1  0
 17 18  1  0
 18 19  1  0
 19 20  1  0
 20 21  1  0
 21 22  1  0
  2  5  1  0
  5  6  2  0
  6  7  1  0
  7  8  2  0
  8  9  1  0
  9 10  2  0
 10 11  1  0
 11 12  1  0
 11 13  2  0
 13 14  1  0
 20 15  1  0
 14  5  1  0
 22 17  1  0
 13  7  1  0
  3  4  1  0
M  END
> <meeko>
{"is_sidechain": false}

> <source_group>
CHRNA7 canonical

> <source_system>
CHRNA7_encenicline

> <source_run>
canonical_obabel_seed2207_ex32

> <source_seed>
2207

> <vina_pose_rank>
3

> <vina_affinity_kcal_mol>
-7.9829999999999997

> <vina_rmsd_to_crystal_angstrom>
2.2866

> <minimizedAffinity>
-7.98792

> <CNNscore>
0.8200499415

> <CNNaffinity>
7.2707409859

> <CNN_VS>
5.9623708725

> <CNNaffinity_variance>
0.1132500172

$$$$
CHRNA7_encenicline__canonical_obabel_seed2207_ex32__pose04


 22 25  0  0  0  0  0  0  0  0999 V2000
  145.6780  138.2490   93.1000 O   0  0  0  0  0  0  0  0  0  0  0  0
  145.5050  138.1600   91.9320 C   0  0  0  0  0  0  0  0  0  0  0  0
  146.6080  137.7880   91.0670 N   0  0  0  0  0  0  0  0  0  0  0  0
  146.4720  137.7100   90.0950 H   0  0  0  0  0  0  0  0  0  0  0  0
  144.1150  138.4350   91.3480 C   0  0  0  0  0  0  0  0  0  0  0  0
  143.1260  137.5240   91.1950 C   0  0  0  0  0  0  0  0  0  0  0  0
  141.8710  137.9330   90.6320 C   0  0  0  0  0  0  0  0  0  0  0  0
  140.7760  137.1390   90.4130 C   0  0  0  0  0  0  0  0  0  0  0  0
  139.6200  137.6830   89.8540 C   0  0  0  0  0  0  0  0  0  0  0  0
  139.5770  139.0460   89.5140 C   0  0  0  0  0  0  0  0  0  0  0  0
  140.6910  139.8620   89.7360 C   0  0  0  0  0  0  0  0  0  0  0  0
  140.6300  141.5910   89.3050 Cl  0  0  0  0  0  0  0  0  0  0  0  0
  141.8310  139.3290   90.2870 C   0  0  0  0  0  0  0  0  0  0  0  0
  143.4770  139.9420   90.7550 S   0  0  0  0  0  0  0  0  0  0  0  0
  147.9410  137.5270   91.6570 C   0  0  0  0  0  0  0  0  0  0  0  0
  148.2050  136.0090   91.7070 C   0  0  0  0  0  0  0  0  0  0  0  0
  149.3580  135.6730   90.9920 N   0  0  0  0  0  0  0  0  0  0  0  0
  150.4480  136.3480   91.4960 C   0  0  0  0  0  0  0  0  0  0  0  0
  150.2590  137.8340   91.4120 C   0  0  0  0  0  0  0  0  0  0  0  0
  148.9800  138.1450   90.8380 C   0  0  0  0  0  0  0  0  0  0  0  0
  148.9200  137.5590   89.5010 C   0  0  0  0  0  0  0  0  0  0  0  0
  149.1880  136.0110   89.6270 C   0  0  0  0  0  0  0  0  0  0  0  0
  1  2  2  0
  2  3  1  0
  3 15  1  0
 15 16  1  0
 16 17  1  0
 17 18  1  0
 18 19  1  0
 19 20  1  0
 20 21  1  0
 21 22  1  0
  2  5  1  0
  5  6  2  0
  6  7  1  0
  7  8  2  0
  8  9  1  0
  9 10  2  0
 10 11  1  0
 11 12  1  0
 11 13  2  0
 13 14  1  0
 20 15  1  0
 14  5  1  0
 22 17  1  0
 13  7  1  0
  3  4  1  0
M  END
> <meeko>
{"is_sidechain": false}

> <source_group>
CHRNA7 canonical

> <source_system>
CHRNA7_encenicline

> <source_run>
canonical_obabel_seed2207_ex32

> <source_seed>
2207

> <vina_pose_rank>
4

> <vina_affinity_kcal_mol>
-7.625

> <vina_rmsd_to_crystal_angstrom>
7.9939

> <minimizedAffinity>
-7.63483

> <CNNscore>
0.2050894499

> <CNNaffinity>
4.9663290977

> <CNN_VS>
1.0185416937

> <CNNaffinity_variance>
0.4468013048

$$$$
CHRNA7_encenicline__canonical_obabel_seed2207_ex32__pose05


 22 25  0  0  0  0  0  0  0  0999 V2000
  146.1410  138.7070   92.9770 O   0  0  0  0  0  0  0  0  0  0  0  0
  145.8570  138.2880   91.9060 C   0  0  0  0  0  0  0  0  0  0  0  0
  146.8930  137.7560   91.0420 N   0  0  0  0  0  0  0  0  0  0  0  0
  146.6650  137.4030   90.1530 H   0  0  0  0  0  0  0  0  0  0  0  0
  144.3940  138.3090   91.4470 C   0  0  0  0  0  0  0  0  0  0  0  0
  143.6900  139.4100   91.0980 C   0  0  0  0  0  0  0  0  0  0  0  0
  142.3230  139.2720   90.6850 C   0  0  0  0  0  0  0  0  0  0  0  0
  141.4800  140.2810   90.3000 C   0  0  0  0  0  0  0  0  0  0  0  0
  140.1680  139.9900   89.9250 C   0  0  0  0  0  0  0  0  0  0  0  0
  139.7110  138.6610   89.9410 C   0  0  0  0  0  0  0  0  0  0  0  0
  140.5670  137.6270   90.3320 C   0  0  0  0  0  0  0  0  0  0  0  0
  139.9820  135.9420   90.3480 Cl  0  0  0  0  0  0  0  0  0  0  0  0
  141.8590  137.9110   90.7020 C   0  0  0  0  0  0  0  0  0  0  0  0
  143.3050  136.9640   91.2660 S   0  0  0  0  0  0  0  0  0  0  0  0
  148.2980  137.7470   91.5110 C   0  0  0  0  0  0  0  0  0  0  0  0
  148.6570  136.3560   92.0680 C   0  0  0  0  0  0  0  0  0  0  0  0
  149.7390  135.7990   91.3810 N   0  0  0  0  0  0  0  0  0  0  0  0
  150.8370  136.6280   91.4640 C   0  0  0  0  0  0  0  0  0  0  0  0
  150.5500  137.9780   90.8760 C   0  0  0  0  0  0  0  0  0  0  0  0
  149.1970  138.0390   90.3980 C   0  0  0  0  0  0  0  0  0  0  0  0
  149.0200  137.0060   89.3810 C   0  0  0  0  0  0  0  0  0  0  0  0
  149.3940  135.6150   90.0190 C   0  0  0  0  0  0  0  0  0  0  0  0
  1  2  2  0
  2  3  1  0
  3 15  1  0
 15 16  1  0
 16 17  1  0
 17 18  1  0
 18 19  1  0
 19 20  1  0
 20 21  1  0
 21 22  1  0
  2  5  1  0
  5  6  2  0
  6  7  1  0
  7  8  2  0
  8  9  1  0
  9 10  2  0
 10 11  1  0
 11 12  1  0
 11 13  2  0
 13 14  1  0
 20 15  1  0
 14  5  1  0
 22 17  1  0
 13  7  1  0
  3  4  1  0
M  END
> <meeko>
{"is_sidechain": false}

> <source_group>
CHRNA7 canonical

> <source_system>
CHRNA7_encenicline

> <source_run>
canonical_obabel_seed2207_ex32

> <source_seed>
2207

> <vina_pose_rank>
5

> <vina_affinity_kcal_mol>
-7.532

> <vina_rmsd_to_crystal_angstrom>
8.1362000000000005

> <minimizedAffinity>
-7.54745

> <CNNscore>
0.1798036397

> <CNNaffinity>
5.0696611404

> <CNN_VS>
0.9115435481

> <CNNaffinity_variance>
0.5044208169

$$$$
CHRNA7_encenicline__canonical_obabel_seed2207_ex32__pose06


 22 25  0  0  0  0  0  0  0  0999 V2000
  144.8900  140.7020   91.1740 O   0  0  0  0  0  0  0  0  0  0  0  0
  144.2850  139.7490   90.8160 C   0  0  0  0  0  0  0  0  0  0  0  0
  144.8920  138.4350   90.9050 N   0  0  0  0  0  0  0  0  0  0  0  0
  144.3950  137.6380   90.6120 H   0  0  0  0  0  0  0  0  0  0  0  0
  142.8640  139.9150   90.2670 C   0  0  0  0  0  0  0  0  0  0  0  0
  141.7730  140.2640   90.9880 C   0  0  0  0  0  0  0  0  0  0  0  0
  140.5020  140.3830   90.3320 C   0  0  0  0  0  0  0  0  0  0  0  0
  139.3110  140.7270   90.9140 C   0  0  0  0  0  0  0  0  0  0  0  0
  138.1510  140.8000   90.1420 C   0  0  0  0  0  0  0  0  0  0  0  0
  138.2050  140.5210   88.7660 C   0  0  0  0  0  0  0  0  0  0  0  0
  139.4180  140.1700   88.1650 C   0  0  0  0  0  0  0  0  0  0  0  0
  139.4800  139.8190   86.4180 Cl  0  0  0  0  0  0  0  0  0  0  0  0
  140.5610  140.0970   88.9240 C   0  0  0  0  0  0  0  0  0  0  0  0
  142.3120  139.7030   88.6300 S   0  0  0  0  0  0  0  0  0  0  0  0
  146.2670  138.3030   91.4390 C   0  0  0  0  0  0  0  0  0  0  0  0
  146.3320  137.1300   92.4370 C   0  0  0  0  0  0  0  0  0  0  0  0
  147.2710  136.1760   92.0360 N   0  0  0  0  0  0  0  0  0  0  0  0
  148.5180  136.7510   91.9170 C   0  0  0  0  0  0  0  0  0  0  0  0
  148.5150  137.8610   90.9090 C   0  0  0  0  0  0  0  0  0  0  0  0
  147.2020  138.0290   90.3520 C   0  0  0  0  0  0  0  0  0  0  0  0
  146.8090  136.7760   89.7120 C   0  0  0  0  0  0  0  0  0  0  0  0
  146.8890  135.6260   90.7880 C   0  0  0  0  0  0  0  0  0  0  0  0
  1  2  2  0
  2  3  1  0
  3 15  1  0
 15 16  1  0
 16 17  1  0
 17 18  1  0
 18 19  1  0
 19 20  1  0
 20 21  1  0
 21 22  1  0
  2  5  1  0
  5  6  2  0
  6  7  1  0
  7  8  2  0
  8  9  1  0
  9 10  2  0
 10 11  1  0
 11 12  1  0
 11 13  2  0
 13 14  1  0
 20 15  1  0
 14  5  1  0
 22 17  1  0
 13  7  1  0
  3  4  1  0
M  END
> <meeko>
{"is_sidechain": false}

> <source_group>
CHRNA7 canonical

> <source_system>
CHRNA7_encenicline

> <source_run>
canonical_obabel_seed2207_ex32

> <source_seed>
2207

> <vina_pose_rank>
6

> <vina_affinity_kcal_mol>
-7.391

> <vina_rmsd_to_crystal_angstrom>
7.8250000000000002

> <minimizedAffinity>
-7.40143

> <CNNscore>
0.1610034853

> <CNNaffinity>
5.3189463615

> <CNN_VS>
0.8563688993

> <CNNaffinity_variance>
0.2972519100

$$$$
CHRNA7_encenicline__canonical_obabel_seed2207_ex32__pose07


 22 25  0  0  0  0  0  0  0  0999 V2000
  142.6980  140.2370   92.0690 O   0  0  0  0  0  0  0  0  0  0  0  0
  142.7840  139.4350   91.2010 C   0  0  0  0  0  0  0  0  0  0  0  0
  141.7020  139.2870   90.2480 N   0  0  0  0  0  0  0  0  0  0  0  0
  141.7670  138.6250   89.5220 H   0  0  0  0  0  0  0  0  0  0  0  0
  144.0420  138.5660   91.0950 C   0  0  0  0  0  0  0  0  0  0  0  0
  144.5270  137.7540   92.0620 C   0  0  0  0  0  0  0  0  0  0  0  0
  145.7200  136.9960   91.8150 C   0  0  0  0  0  0  0  0  0  0  0  0
  146.3350  136.1330   92.6830 C   0  0  0  0  0  0  0  0  0  0  0  0
  147.4970  135.4640   92.2980 C   0  0  0  0  0  0  0  0  0  0  0  0
  148.0370  135.6760   91.0180 C   0  0  0  0  0  0  0  0  0  0  0  0
  147.4140  136.5540   90.1270 C   0  0  0  0  0  0  0  0  0  0  0  0
  148.1030  136.8160   88.5030 Cl  0  0  0  0  0  0  0  0  0  0  0  0
  146.2690  137.2140   90.5040 C   0  0  0  0  0  0  0  0  0  0  0  0
  145.1290  138.4080   89.7440 S   0  0  0  0  0  0  0  0  0  0  0  0
  140.4980  140.1400   90.3730 C   0  0  0  0  0  0  0  0  0  0  0  0
  140.5420  141.2690   89.3250 C   0  0  0  0  0  0  0  0  0  0  0  0
  139.4250  141.2260   88.4870 N   0  0  0  0  0  0  0  0  0  0  0  0
  138.2670  141.3280   89.2270 C   0  0  0  0  0  0  0  0  0  0  0  0
  138.1520  140.2110   90.2220 C   0  0  0  0  0  0  0  0  0  0  0  0
  139.2960  139.3460   90.1380 C   0  0  0  0  0  0  0  0  0  0  0  0
  139.3630  138.8010   88.7840 C   0  0  0  0  0  0  0  0  0  0  0  0
  139.4150  140.0050   87.7690 C   0  0  0  0  0  0  0  0  0  0  0  0
  1  2  2  0
  2  3  1  0
  3 15  1  0
 15 16  1  0
 16 17  1  0
 17 18  1  0
 18 19  1  0
 19 20  1  0
 20 21  1  0
 21 22  1  0
  2  5  1  0
  5  6  2  0
  6  7  1  0
  7  8  2  0
  8  9  1  0
  9 10  2  0
 10 11  1  0
 11 12  1  0
 11 13  2  0
 13 14  1  0
 20 15  1  0
 14  5  1  0
 22 17  1  0
 13  7  1  0
  3  4  1  0
M  END
> <meeko>
{"is_sidechain": false}

> <source_group>
CHRNA7 canonical

> <source_system>
CHRNA7_encenicline

> <source_run>
canonical_obabel_seed2207_ex32

> <source_seed>
2207

> <vina_pose_rank>
7

> <vina_affinity_kcal_mol>
-7.3899999999999997

> <vina_rmsd_to_crystal_angstrom>
1.7598

> <minimizedAffinity>
-7.40643

> <CNNscore>
0.7830845714

> <CNNaffinity>
6.7751345634

> <CNN_VS>
5.3055033684

> <CNNaffinity_variance>
0.4400699437

$$$$
CHRNA7_encenicline__canonical_obabel_seed2207_ex32__pose08


 22 25  0  0  0  0  0  0  0  0999 V2000
  146.2340  134.9380   92.2000 O   0  0  0  0  0  0  0  0  0  0  0  0
  146.1260  135.9090   91.5320 C   0  0  0  0  0  0  0  0  0  0  0  0
  147.3120  136.5620   91.0130 N   0  0  0  0  0  0  0  0  0  0  0  0
  147.2310  137.3680   90.4550 H   0  0  0  0  0  0  0  0  0  0  0  0
  144.7320  136.4630   91.2180 C   0  0  0  0  0  0  0  0  0  0  0  0
  143.6040  135.7300   91.0730 C   0  0  0  0  0  0  0  0  0  0  0  0
  142.3640  136.3930   90.7810 C   0  0  0  0  0  0  0  0  0  0  0  0
  141.1420  135.7990   90.6070 C   0  0  0  0  0  0  0  0  0  0  0  0
  140.0200  136.5800   90.3250 C   0  0  0  0  0  0  0  0  0  0  0  0
  140.1450  137.9760   90.2190 C   0  0  0  0  0  0  0  0  0  0  0  0
  141.3900  138.5880   90.3970 C   0  0  0  0  0  0  0  0  0  0  0  0
  141.5410  140.3590   90.2640 Cl  0  0  0  0  0  0  0  0  0  0  0  0
  142.4960  137.8210   90.6740 C   0  0  0  0  0  0  0  0  0  0  0  0
  144.2630  138.1220   90.9790 S   0  0  0  0  0  0  0  0  0  0  0  0
  148.6480  136.0060   91.3310 C   0  0  0  0  0  0  0  0  0  0  0  0
  149.3690  135.5970   90.0320 C   0  0  0  0  0  0  0  0  0  0  0  0
  150.5840  136.2730   89.8930 N   0  0  0  0  0  0  0  0  0  0  0  0
  151.4000  136.0180   90.9740 C   0  0  0  0  0  0  0  0  0  0  0  0
  150.7610  136.4570   92.2580 C   0  0  0  0  0  0  0  0  0  0  0  0
  149.4610  137.0130   92.0070 C   0  0  0  0  0  0  0  0  0  0  0  0
  149.6140  138.1570   91.1110 C   0  0  0  0  0  0  0  0  0  0  0  0
  150.3470  137.6660   89.8050 C   0  0  0  0  0  0  0  0  0  0  0  0
  1  2  2  0
  2  3  1  0
  3 15  1  0
 15 16  1  0
 16 17  1  0
 17 18  1  0
 18 19  1  0
 19 20  1  0
 20 21  1  0
 21 22  1  0
  2  5  1  0
  5  6  2  0
  6  7  1  0
  7  8  2  0
  8  9  1  0
  9 10  2  0
 10 11  1  0
 11 12  1  0
 11 13  2  0
 13 14  1  0
 20 15  1  0
 14  5  1  0
 22 17  1  0
 13  7  1  0
  3  4  1  0
M  END
> <meeko>
{"is_sidechain": false}

> <source_group>
CHRNA7 canonical

> <source_system>
CHRNA7_encenicline

> <source_run>
canonical_obabel_seed2207_ex32

> <source_seed>
2207

> <vina_pose_rank>
8

> <vina_affinity_kcal_mol>
-7.3600000000000003

> <vina_rmsd_to_crystal_angstrom>
8.2833000000000006

> <minimizedAffinity>
-7.37300

> <CNNscore>
0.2577206790

> <CNNaffinity>
5.3837714195

> <CNN_VS>
1.3875092268

> <CNNaffinity_variance>
0.2933272421

$$$$
CHRNA7_encenicline__canonical_obabel_seed2207_ex32__pose09


 22 25  0  0  0  0  0  0  0  0999 V2000
  140.1530  136.9220   90.3320 O   0  0  0  0  0  0  0  0  0  0  0  0
  141.0490  137.6880   90.2250 C   0  0  0  0  0  0  0  0  0  0  0  0
  140.8190  138.9880   89.6250 N   0  0  0  0  0  0  0  0  0  0  0  0
  141.5580  139.6310   89.5350 H   0  0  0  0  0  0  0  0  0  0  0  0
  142.4440  137.2970   90.7250 C   0  0  0  0  0  0  0  0  0  0  0  0
  143.4240  138.1560   91.0900 C   0  0  0  0  0  0  0  0  0  0  0  0
  144.6840  137.6390   91.5430 C   0  0  0  0  0  0  0  0  0  0  0  0
  145.7690  138.3700   91.9470 C   0  0  0  0  0  0  0  0  0  0  0  0
  146.9330  137.7220   92.3610 C   0  0  0  0  0  0  0  0  0  0  0  0
  146.9920  136.3180   92.3640 C   0  0  0  0  0  0  0  0  0  0  0  0
  145.8870  135.5650   91.9540 C   0  0  0  0  0  0  0  0  0  0  0  0
  145.9670  133.7840   91.9620 Cl  0  0  0  0  0  0  0  0  0  0  0  0
  144.7400  136.2020   91.5450 C   0  0  0  0  0  0  0  0  0  0  0  0
  143.0990  135.6990   90.9440 S   0  0  0  0  0  0  0  0  0  0  0  0
  139.4610  139.3400   89.1500 C   0  0  0  0  0  0  0  0  0  0  0  0
  138.5580  139.6870   90.3500 C   0  0  0  0  0  0  0  0  0  0  0  0
  138.0470  140.9830   90.2400 N   0  0  0  0  0  0  0  0  0  0  0  0
  137.3320  141.1190   89.0700 C   0  0  0  0  0  0  0  0  0  0  0  0
  138.1900  140.8480   87.8700 C   0  0  0  0  0  0  0  0  0  0  0  0
  139.5250  140.5070   88.2750 C   0  0  0  0  0  0  0  0  0  0  0  0
  140.0750  141.6240   89.0380 C   0  0  0  0  0  0  0  0  0  0  0  0
  139.1110  141.9180   90.2490 C   0  0  0  0  0  0  0  0  0  0  0  0
  1  2  2  0
  2  3  1  0
  3 15  1  0
 15 16  1  0
 16 17  1  0
 17 18  1  0
 18 19  1  0
 19 20  1  0
 20 21  1  0
 21 22  1  0
  2  5  1  0
  5  6  2  0
  6  7  1  0
  7  8  2  0
  8  9  1  0
  9 10  2  0
 10 11  1  0
 11 12  1  0
 11 13  2  0
 13 14  1  0
 20 15  1  0
 14  5  1  0
 22 17  1  0
 13  7  1  0
  3  4  1  0
M  END
> <meeko>
{"is_sidechain": false}

> <source_group>
CHRNA7 canonical

> <source_system>
CHRNA7_encenicline

> <source_run>
canonical_obabel_seed2207_ex32

> <source_seed>
2207

> <vina_pose_rank>
9

> <vina_affinity_kcal_mol>
-7.218

> <vina_rmsd_to_crystal_angstrom>
2.7258

> <minimizedAffinity>
-7.36109

> <CNNscore>
0.7905423641

> <CNNaffinity>
6.8168296814

> <CNN_VS>
5.3889927864

> <CNNaffinity_variance>
0.1876676232

$$$$
CHRNA7_encenicline__canonical_obabel_seed2207_ex32__pose10


 22 25  0  0  0  0  0  0  0  0999 V2000
  144.9140  140.7860   91.1590 O   0  0  0  0  0  0  0  0  0  0  0  0
  144.3100  139.8520   90.7510 C   0  0  0  0  0  0  0  0  0  0  0  0
  144.9470  138.5510   90.6940 N   0  0  0  0  0  0  0  0  0  0  0  0
  144.4510  137.7700   90.3590 H   0  0  0  0  0  0  0  0  0  0  0  0
  142.8590  140.0310   90.2920 C   0  0  0  0  0  0  0  0  0  0  0  0
  142.4460  140.1730   89.0110 C   0  0  0  0  0  0  0  0  0  0  0  0
  141.0470  140.3300   88.7340 C   0  0  0  0  0  0  0  0  0  0  0  0
  140.4700  140.4820   87.5010 C   0  0  0  0  0  0  0  0  0  0  0  0
  139.0870  140.6260   87.3900 C   0  0  0  0  0  0  0  0  0  0  0  0
  138.2840  140.6140   88.5430 C   0  0  0  0  0  0  0  0  0  0  0  0
  138.8660  140.4580   89.8050 C   0  0  0  0  0  0  0  0  0  0  0  0
  137.8430  140.4420   91.2650 Cl  0  0  0  0  0  0  0  0  0  0  0  0
  140.2290  140.3170   89.9170 C   0  0  0  0  0  0  0  0  0  0  0  0
  141.4210  140.0940   91.2710 S   0  0  0  0  0  0  0  0  0  0  0  0
  146.3500  138.4070   91.1440 C   0  0  0  0  0  0  0  0  0  0  0  0
  146.4210  137.4390   92.3420 C   0  0  0  0  0  0  0  0  0  0  0  0
  147.2540  136.3520   92.0670 N   0  0  0  0  0  0  0  0  0  0  0  0
  148.5230  136.7890   91.7510 C   0  0  0  0  0  0  0  0  0  0  0  0
  148.5090  137.6880   90.5500 C   0  0  0  0  0  0  0  0  0  0  0  0
  147.1680  137.8580   90.0660 C   0  0  0  0  0  0  0  0  0  0  0  0
  146.6360  136.5440   89.7100 C   0  0  0  0  0  0  0  0  0  0  0  0
  146.7300  135.6130   90.9780 C   0  0  0  0  0  0  0  0  0  0  0  0
  1  2  2  0
  2  3  1  0
  3 15  1  0
 15 16  1  0
 16 17  1  0
 17 18  1  0
 18 19  1  0
 19 20  1  0
 20 21  1  0
 21 22  1  0
  2  5  1  0
  5  6  2  0
  6  7  1  0
  7  8  2  0
  8  9  1  0
  9 10  2  0
 10 11  1  0
 11 12  1  0
 11 13  2  0
 13 14  1  0
 20 15  1  0
 14  5  1  0
 22 17  1  0
 13  7  1  0
  3  4  1  0
M  END
> <meeko>
{"is_sidechain": false}

> <source_group>
CHRNA7 canonical

> <source_system>
CHRNA7_encenicline

> <source_run>
canonical_obabel_seed2207_ex32

> <source_seed>
2207

> <vina_pose_rank>
10

> <vina_affinity_kcal_mol>
-7.2009999999999996

> <vina_rmsd_to_crystal_angstrom>
7.8884999999999996

> <minimizedAffinity>
-7.20367

> <CNNscore>
0.1968036145

> <CNNaffinity>
5.4782872200

> <CNN_VS>
1.0781466961

> <CNNaffinity_variance>
0.2159632444

$$$$
CHRNA7_encenicline__canonical_obabel_seed2207_ex32__pose11


 22 25  0  0  0  0  0  0  0  0999 V2000
  148.1940  135.2420   92.7140 O   0  0  0  0  0  0  0  0  0  0  0  0
  148.1330  136.3040   92.1950 C   0  0  0  0  0  0  0  0  0  0  0  0
  149.3520  137.0280   91.8890 N   0  0  0  0  0  0  0  0  0  0  0  0
  149.3100  137.9100   91.4550 H   0  0  0  0  0  0  0  0  0  0  0  0
  146.7650  136.9010   91.8480 C   0  0  0  0  0  0  0  0  0  0  0  0
  146.4930  138.2170   91.6870 C   0  0  0  0  0  0  0  0  0  0  0  0
  145.1570  138.6260   91.3590 C   0  0  0  0  0  0  0  0  0  0  0  0
  144.7210  139.9100   91.1620 C   0  0  0  0  0  0  0  0  0  0  0  0
  143.3840  140.1530   90.8490 C   0  0  0  0  0  0  0  0  0  0  0  0
  142.4820  139.0810   90.7360 C   0  0  0  0  0  0  0  0  0  0  0  0
  142.9210  137.7680   90.9350 C   0  0  0  0  0  0  0  0  0  0  0  0
  141.7740  136.4110   90.7870 Cl  0  0  0  0  0  0  0  0  0  0  0  0
  144.2380  137.5260   91.2430 C   0  0  0  0  0  0  0  0  0  0  0  0
  145.2620  136.0630   91.5830 S   0  0  0  0  0  0  0  0  0  0  0  0
  150.6610  136.4280   92.2340 C   0  0  0  0  0  0  0  0  0  0  0  0
  151.1240  135.4890   91.1030 C   0  0  0  0  0  0  0  0  0  0  0  0
  152.3610  135.8880   90.5890 N   0  0  0  0  0  0  0  0  0  0  0  0
  153.3100  135.9100   91.5880 C   0  0  0  0  0  0  0  0  0  0  0  0
  152.9290  136.8590   92.6850 C   0  0  0  0  0  0  0  0  0  0  0  0
  151.6640  137.4760   92.3960 C   0  0  0  0  0  0  0  0  0  0  0  0
  151.7820  138.1990   91.1330 C   0  0  0  0  0  0  0  0  0  0  0  0
  152.2480  137.1810   90.0230 C   0  0  0  0  0  0  0  0  0  0  0  0
  1  2  2  0
  2  3  1  0
  3 15  1  0
 15 16  1  0
 16 17  1  0
 17 18  1  0
 18 19  1  0
 19 20  1  0
 20 21  1  0
 21 22  1  0
  2  5  1  0
  5  6  2  0
  6  7  1  0
  7  8  2  0
  8  9  1  0
  9 10  2  0
 10 11  1  0
 11 12  1  0
 11 13  2  0
 13 14  1  0
 20 15  1  0
 14  5  1  0
 22 17  1  0
 13  7  1  0
  3  4  1  0
M  END
> <meeko>
{"is_sidechain": false}

> <source_group>
CHRNA7 canonical

> <source_system>
CHRNA7_encenicline

> <source_run>
canonical_obabel_seed2207_ex32

> <source_seed>
2207

> <vina_pose_rank>
11

> <vina_affinity_kcal_mol>
-6.9349999999999996

> <vina_rmsd_to_crystal_angstrom>
9.3956999999999997

> <minimizedAffinity>
-6.99687

> <CNNscore>
0.1837901026

> <CNNaffinity>
5.0028924942

> <CNN_VS>
0.9194821119

> <CNNaffinity_variance>
0.3313384056

$$$$
