BACE1_verubecestat__alternate_476_seed4409_ex32__pose01
     RDKit          3D

 45 47  0  0  0  0  0  0  0  0999 V2000
   27.6300   13.7680   24.5120 C   0  0  0  0  0  0  0  0  0  0  0  0
   26.9510   13.8840   23.2060 N   0  0  0  0  0  0  0  0  0  0  0  0
   25.8510   14.7420   22.9840 C   0  0  0  0  0  0  0  0  0  0  0  0
   25.5670   15.5660   24.0390 N   0  0  0  0  0  0  0  0  0  0  0  0
   25.1750   14.7760   21.8770 N   0  0  0  0  0  0  0  0  0  0  0  0
   25.4250   13.8260   20.7940 C   0  0  2  0  0  0  0  0  0  0  0  0
   24.7850   14.5100   19.5830 C   0  0  0  0  0  0  0  0  0  0  0  0
   24.7300   12.4950   21.0300 C   0  0  0  0  0  0  0  0  0  0  0  0
   24.0310   12.2470   22.2110 C   0  0  0  0  0  0  0  0  0  0  0  0
   23.3950   11.0500   22.4530 C   0  0  0  0  0  0  0  0  0  0  0  0
   22.7260   10.9320   23.6770 N   0  0  0  0  0  0  0  0  0  0  0  0
   23.2170   11.1670   24.9490 C   0  0  0  0  0  0  0  0  0  0  0  0
   24.3880   11.4010   25.2200 O   0  0  0  0  0  0  0  0  0  0  0  0
   22.2030   11.1590   26.0310 C   0  0  0  0  0  0  0  0  0  0  0  0
   20.9050   10.7610   25.7600 C   0  0  0  0  0  0  0  0  0  0  0  0
   20.0000   10.7750   26.8060 C   0  0  0  0  0  0  0  0  0  0  0  0
   20.4090   11.1730   28.0640 C   0  0  0  0  0  0  0  0  0  0  0  0
   19.5630   11.2120   29.1080 F   0  0  0  0  0  0  0  0  0  0  0  0
   21.7190   11.5580   28.2340 C   0  0  0  0  0  0  0  0  0  0  0  0
   22.6190   11.5600   27.2370 N   0  0  0  0  0  0  0  0  0  0  0  0
   23.4120   10.0400   21.5000 C   0  0  0  0  0  0  0  0  0  0  0  0
   24.1050   10.2660   20.3230 C   0  0  0  0  0  0  0  0  0  0  0  0
   24.7650   11.4600   20.1080 C   0  0  0  0  0  0  0  0  0  0  0  0
   25.4620   11.6470   18.9580 F   0  0  0  0  0  0  0  0  0  0  0  0
   26.9090   13.7350   20.5170 C   0  0  0  0  0  0  0  0  0  0  0  0
   27.7700   13.0790   21.9240 S   0  0  0  0  0  0  0  0  0  0  0  0
   29.1180   13.6160   21.8720 O   0  0  0  0  0  0  0  0  0  0  0  0
   27.4630   11.6990   22.1350 O   0  0  0  0  0  0  0  0  0  0  0  0
   26.8944   13.8937   25.3201 H   0  0  0  0  0  0  0  0  0  0  0  0
   28.0995   12.7766   24.5944 H   0  0  0  0  0  0  0  0  0  0  0  0
   28.4020   14.5473   24.5944 H   0  0  0  0  0  0  0  0  0  0  0  0
   24.8170   16.2020   23.9800 H   0  0  0  0  0  0  0  0  0  0  0  0
   26.1130   15.5250   24.8570 H   0  0  0  0  0  0  0  0  0  0  0  0
   24.0713   15.2728   19.9275 H   0  0  0  0  0  0  0  0  0  0  0  0
   25.5678   14.9880   18.9757 H   0  0  0  0  0  0  0  0  0  0  0  0
   24.2561   13.7607   18.9757 H   0  0  0  0  0  0  0  0  0  0  0  0
   23.9862   13.0357   22.9764 H   0  0  0  0  0  0  0  0  0  0  0  0
   21.7850   10.6440   23.6260 H   0  0  0  0  0  0  0  0  0  0  0  0
   20.6044   10.4453   24.7501 H   0  0  0  0  0  0  0  0  0  0  0  0
   18.9569   10.4699   26.6364 H   0  0  0  0  0  0  0  0  0  0  0  0
   22.0448   11.8795   29.2342 H   0  0  0  0  0  0  0  0  0  0  0  0
   22.8899    9.0878   21.6753 H   0  0  0  0  0  0  0  0  0  0  0  0
   24.1303    9.4846   19.5492 H   0  0  0  0  0  0  0  0  0  0  0  0
   27.0753   13.0759   19.6522 H   0  0  0  0  0  0  0  0  0  0  0  0
   27.2923   14.7443   20.3064 H   0  0  0  0  0  0  0  0  0  0  0  0
  1  2  1  0
  2  3  1  0
  3  4  1  0
  3  5  2  0
  5  6  1  0
  6  7  1  6
  6  8  1  0
  8  9  2  0
  9 10  1  0
 10 11  1  0
 11 12  1  0
 12 13  2  0
 12 14  1  0
 14 15  2  0
 15 16  1  0
 16 17  2  0
 17 18  1  0
 17 19  1  0
 19 20  2  0
 10 21  2  0
 21 22  1  0
 22 23  2  0
 23 24  1  0
  6 25  1  0
 25 26  1  0
 26 27  2  0
 26 28  2  0
 26  2  1  0
 23  8  1  0
 20 14  1  0
  1 29  1  0
  1 30  1  0
  1 31  1  0
  4 32  1  0
  4 33  1  0
  7 34  1  0
  7 35  1  0
  7 36  1  0
  9 37  1  0
 11 38  1  0
 15 39  1  0
 16 40  1  0
 19 41  1  0
 21 42  1  0
 22 43  1  0
 25 44  1  0
 25 45  1  0
M  END
>  <meeko>  (1)
{"is_sidechain": false}

>  <source_group>  (1)
BACE1-476

>  <source_system>  (1)
BACE1_verubecestat

>  <source_run>  (1)
alternate_476_seed4409_ex32

>  <source_seed>  (1)
4409

>  <vina_pose_rank>  (1)
1

>  <vina_affinity_kcal_mol>  (1)
-9.1739999999999995

>  <vina_rmsd_to_crystal_angstrom>  (1)
7.1161000000000003

$$$$
BACE1_verubecestat__alternate_476_seed4409_ex32__pose02
     RDKit          3D

 45 47  0  0  0  0  0  0  0  0999 V2000
   23.0780   13.4790   20.2230 C   0  0  0  0  0  0  0  0  0  0  0  0
   24.4720   13.1190   20.5500 N   0  0  0  0  0  0  0  0  0  0  0  0
   24.8780   11.7980   20.8390 C   0  0  0  0  0  0  0  0  0  0  0  0
   23.9010   10.8600   20.6400 N   0  0  0  0  0  0  0  0  0  0  0  0
   26.0720   11.4800   21.2340 N   0  0  0  0  0  0  0  0  0  0  0  0
   27.0780   12.4980   21.5350 C   0  0  2  0  0  0  0  0  0  0  0  0
   28.3900   11.7090   21.4850 C   0  0  0  0  0  0  0  0  0  0  0  0
   26.9060   13.0760   22.9310 C   0  0  0  0  0  0  0  0  0  0  0  0
   25.8320   12.7020   23.7370 C   0  0  0  0  0  0  0  0  0  0  0  0
   25.6500   13.2110   25.0030 C   0  0  0  0  0  0  0  0  0  0  0  0
   24.5310   12.7510   25.7100 N   0  0  0  0  0  0  0  0  0  0  0  0
   23.1990   12.8180   25.3440 C   0  0  0  0  0  0  0  0  0  0  0  0
   22.7650   13.4240   24.3720 O   0  0  0  0  0  0  0  0  0  0  0  0
   22.2650   12.0530   26.2060 C   0  0  0  0  0  0  0  0  0  0  0  0
   21.0840   11.5610   25.6790 C   0  0  0  0  0  0  0  0  0  0  0  0
   20.2500   10.8560   26.5290 C   0  0  0  0  0  0  0  0  0  0  0  0
   20.6130   10.6650   27.8480 C   0  0  0  0  0  0  0  0  0  0  0  0
   19.8320    9.9960   28.7120 F   0  0  0  0  0  0  0  0  0  0  0  0
   21.8060   11.1990   28.2800 C   0  0  0  0  0  0  0  0  0  0  0  0
   22.6340   11.8920   27.4810 N   0  0  0  0  0  0  0  0  0  0  0  0
   26.5610   14.1150   25.5360 C   0  0  0  0  0  0  0  0  0  0  0  0
   27.6310   14.5000   24.7480 C   0  0  0  0  0  0  0  0  0  0  0  0
   27.7830   14.0050   23.4680 C   0  0  0  0  0  0  0  0  0  0  0  0
   28.8260   14.4210   22.7040 F   0  0  0  0  0  0  0  0  0  0  0  0
   27.1320   13.5190   20.4200 C   0  0  0  0  0  0  0  0  0  0  0  0
   25.5950   14.3990   20.3010 S   0  0  0  0  0  0  0  0  0  0  0  0
   25.4660   14.8220   18.9180 O   0  0  0  0  0  0  0  0  0  0  0  0
   25.3910   15.2580   21.4260 O   0  0  0  0  0  0  0  0  0  0  0  0
   22.5094   13.6258   21.1531 H   0  0  0  0  0  0  0  0  0  0  0  0
   23.0676   14.4093   19.6361 H   0  0  0  0  0  0  0  0  0  0  0  0
   22.6184   12.6701   19.6361 H   0  0  0  0  0  0  0  0  0  0  0  0
   24.0880    9.9090   20.8140 H   0  0  0  0  0  0  0  0  0  0  0  0
   23.0110   11.1360   20.3220 H   0  0  0  0  0  0  0  0  0  0  0  0
   28.7331   11.5027   22.5096 H   0  0  0  0  0  0  0  0  0  0  0  0
   28.2267   10.7592   20.9548 H   0  0  0  0  0  0  0  0  0  0  0  0
   29.1524   12.2985   20.9548 H   0  0  0  0  0  0  0  0  0  0  0  0
   25.1044   11.9746   23.3478 H   0  0  0  0  0  0  0  0  0  0  0  0
   24.7170   12.3240   26.5770 H   0  0  0  0  0  0  0  0  0  0  0  0
   20.8181   11.7241   24.6242 H   0  0  0  0  0  0  0  0  0  0  0  0
   19.2993   10.4483   26.1548 H   0  0  0  0  0  0  0  0  0  0  0  0
   22.0954   11.0510   29.3309 H   0  0  0  0  0  0  0  0  0  0  0  0
   26.4351   14.5125   26.5539 H   0  0  0  0  0  0  0  0  0  0  0  0
   28.3706   15.2100   25.1466 H   0  0  0  0  0  0  0  0  0  0  0  0
   27.9427   14.2340   20.6239 H   0  0  0  0  0  0  0  0  0  0  0  0
   27.3148   12.9959   19.4697 H   0  0  0  0  0  0  0  0  0  0  0  0
  1  2  1  0
  2  3  1  0
  3  4  1  0
  3  5  2  0
  5  6  1  0
  6  7  1  1
  6  8  1  0
  8  9  2  0
  9 10  1  0
 10 11  1  0
 11 12  1  0
 12 13  2  0
 12 14  1  0
 14 15  2  0
 15 16  1  0
 16 17  2  0
 17 18  1  0
 17 19  1  0
 19 20  2  0
 10 21  2  0
 21 22  1  0
 22 23  2  0
 23 24  1  0
  6 25  1  0
 25 26  1  0
 26 27  2  0
 26 28  2  0
 26  2  1  0
 23  8  1  0
 20 14  1  0
  1 29  1  0
  1 30  1  0
  1 31  1  0
  4 32  1  0
  4 33  1  0
  7 34  1  0
  7 35  1  0
  7 36  1  0
  9 37  1  0
 11 38  1  0
 15 39  1  0
 16 40  1  0
 19 41  1  0
 21 42  1  0
 22 43  1  0
 25 44  1  0
 25 45  1  0
M  END
>  <meeko>  (2)
{"is_sidechain": false}

>  <source_group>  (2)
BACE1-476

>  <source_system>  (2)
BACE1_verubecestat

>  <source_run>  (2)
alternate_476_seed4409_ex32

>  <source_seed>  (2)
4409

>  <vina_pose_rank>  (2)
2

>  <vina_affinity_kcal_mol>  (2)
-8.5429999999999993

>  <vina_rmsd_to_crystal_angstrom>  (2)
7.5259

$$$$
BACE1_verubecestat__alternate_476_seed4409_ex32__pose03
     RDKit          3D

 45 47  0  0  0  0  0  0  0  0999 V2000
   28.7450   14.0260   25.3160 C   0  0  0  0  0  0  0  0  0  0  0  0
   28.1070   14.2490   24.0030 N   0  0  0  0  0  0  0  0  0  0  0  0
   27.0460   15.1600   23.8070 C   0  0  0  0  0  0  0  0  0  0  0  0
   26.7620   15.9270   24.9050 N   0  0  0  0  0  0  0  0  0  0  0  0
   26.4030   15.2890   22.6870 N   0  0  0  0  0  0  0  0  0  0  0  0
   26.6500   14.4010   21.5530 C   0  0  2  0  0  0  0  0  0  0  0  0
   26.0690   15.1830   20.3720 C   0  0  0  0  0  0  0  0  0  0  0  0
   25.9010   13.0840   21.6850 C   0  0  0  0  0  0  0  0  0  0  0  0
   25.1030   12.8180   22.7970 C   0  0  0  0  0  0  0  0  0  0  0  0
   24.4160   11.6350   22.9450 C   0  0  0  0  0  0  0  0  0  0  0  0
   23.6480   11.4950   24.1080 N   0  0  0  0  0  0  0  0  0  0  0  0
   22.6300   12.3130   24.5650 C   0  0  0  0  0  0  0  0  0  0  0  0
   22.3160   13.3890   24.0740 O   0  0  0  0  0  0  0  0  0  0  0  0
   21.8640   11.7850   25.7200 C   0  0  0  0  0  0  0  0  0  0  0  0
   20.5960   11.2630   25.5290 C   0  0  0  0  0  0  0  0  0  0  0  0
   19.9270   10.7860   26.6430 C   0  0  0  0  0  0  0  0  0  0  0  0
   20.5310   10.8400   27.8840 C   0  0  0  0  0  0  0  0  0  0  0  0
   19.9160   10.3970   28.9940 F   0  0  0  0  0  0  0  0  0  0  0  0
   21.7930   11.3820   27.9740 C   0  0  0  0  0  0  0  0  0  0  0  0
   22.4650   11.8580   26.9130 N   0  0  0  0  0  0  0  0  0  0  0  0
   24.4810   10.6570   21.9600 C   0  0  0  0  0  0  0  0  0  0  0  0
   25.2720   10.9020   20.8510 C   0  0  0  0  0  0  0  0  0  0  0  0
   25.9800   12.0810   20.7320 C   0  0  0  0  0  0  0  0  0  0  0  0
   26.7720   12.2840   19.6470 F   0  0  0  0  0  0  0  0  0  0  0  0
   28.1370   14.2710   21.3090 C   0  0  0  0  0  0  0  0  0  0  0  0
   28.9340   13.4960   22.6940 S   0  0  0  0  0  0  0  0  0  0  0  0
   30.3010   13.9830   22.7110 O   0  0  0  0  0  0  0  0  0  0  0  0
   28.5710   12.1180   22.8070 O   0  0  0  0  0  0  0  0  0  0  0  0
   28.0329   14.2749   26.1166 H   0  0  0  0  0  0  0  0  0  0  0  0
   29.0423   12.9707   25.4047 H   0  0  0  0  0  0  0  0  0  0  0  0
   29.6350   14.6664   25.4047 H   0  0  0  0  0  0  0  0  0  0  0  0
   26.0380   16.5920   24.8670 H   0  0  0  0  0  0  0  0  0  0  0  0
   27.2830   15.8130   25.7330 H   0  0  0  0  0  0  0  0  0  0  0  0
   25.4527   16.0125   20.7491 H   0  0  0  0  0  0  0  0  0  0  0  0
   26.8894   15.5848   19.7592 H   0  0  0  0  0  0  0  0  0  0  0  0
   25.4475   14.5136   19.7592 H   0  0  0  0  0  0  0  0  0  0  0  0
   25.0196   13.5815   23.5845 H   0  0  0  0  0  0  0  0  0  0  0  0
   23.8600   10.7160   24.6710 H   0  0  0  0  0  0  0  0  0  0  0  0
   20.1375   11.2286   24.5297 H   0  0  0  0  0  0  0  0  0  0  0  0
   18.9161   10.3647   26.5401 H   0  0  0  0  0  0  0  0  0  0  0  0
   22.2742   11.4275   28.9621 H   0  0  0  0  0  0  0  0  0  0  0  0
   23.9203    9.7158   22.0588 H   0  0  0  0  0  0  0  0  0  0  0  0
   25.3374   10.1470   20.0537 H   0  0  0  0  0  0  0  0  0  0  0  0
   28.3034   13.6612   20.4088 H   0  0  0  0  0  0  0  0  0  0  0  0
   28.5626   15.2761   21.1726 H   0  0  0  0  0  0  0  0  0  0  0  0
  1  2  1  0
  2  3  1  0
  3  4  1  0
  3  5  2  0
  5  6  1  0
  6  7  1  6
  6  8  1  0
  8  9  2  0
  9 10  1  0
 10 11  1  0
 11 12  1  0
 12 13  2  0
 12 14  1  0
 14 15  2  0
 15 16  1  0
 16 17  2  0
 17 18  1  0
 17 19  1  0
 19 20  2  0
 10 21  2  0
 21 22  1  0
 22 23  2  0
 23 24  1  0
  6 25  1  0
 25 26  1  0
 26 27  2  0
 26 28  2  0
 26  2  1  0
 23  8  1  0
 20 14  1  0
  1 29  1  0
  1 30  1  0
  1 31  1  0
  4 32  1  0
  4 33  1  0
  7 34  1  0
  7 35  1  0
  7 36  1  0
  9 37  1  0
 11 38  1  0
 15 39  1  0
 16 40  1  0
 19 41  1  0
 21 42  1  0
 22 43  1  0
 25 44  1  0
 25 45  1  0
M  END
>  <meeko>  (3)
{"is_sidechain": false}

>  <source_group>  (3)
BACE1-476

>  <source_system>  (3)
BACE1_verubecestat

>  <source_run>  (3)
alternate_476_seed4409_ex32

>  <source_seed>  (3)
4409

>  <vina_pose_rank>  (3)
3

>  <vina_affinity_kcal_mol>  (3)
-8.4199999999999999

>  <vina_rmsd_to_crystal_angstrom>  (3)
7.6109

$$$$
BACE1_verubecestat__alternate_476_seed4409_ex32__pose04
     RDKit          3D

 45 47  0  0  0  0  0  0  0  0999 V2000
   23.3320   10.4070   24.3550 C   0  0  0  0  0  0  0  0  0  0  0  0
   23.6640   11.2650   23.2000 N   0  0  0  0  0  0  0  0  0  0  0  0
   23.4420   10.8740   21.8610 C   0  0  0  0  0  0  0  0  0  0  0  0
   22.7530    9.6980   21.7330 N   0  0  0  0  0  0  0  0  0  0  0  0
   23.8260   11.5670   20.8340 N   0  0  0  0  0  0  0  0  0  0  0  0
   24.6420   12.7710   20.9810 C   0  0  2  0  0  0  0  0  0  0  0  0
   24.4480   13.4830   19.6400 C   0  0  0  0  0  0  0  0  0  0  0  0
   26.1170   12.4430   21.1530 C   0  0  0  0  0  0  0  0  0  0  0  0
   26.9780   13.3210   21.8100 C   0  0  0  0  0  0  0  0  0  0  0  0
   28.3180   13.0510   21.9780 C   0  0  0  0  0  0  0  0  0  0  0  0
   29.0720   14.0170   22.6570 N   0  0  0  0  0  0  0  0  0  0  0  0
   29.3300   14.1040   24.0140 C   0  0  0  0  0  0  0  0  0  0  0  0
   28.8180   13.4000   24.8750 O   0  0  0  0  0  0  0  0  0  0  0  0
   30.3370   15.1200   24.4030 C   0  0  0  0  0  0  0  0  0  0  0  0
   29.9510   16.2320   25.1310 C   0  0  0  0  0  0  0  0  0  0  0  0
   30.9320   17.1500   25.4650 C   0  0  0  0  0  0  0  0  0  0  0  0
   32.2390   16.9320   25.0740 C   0  0  0  0  0  0  0  0  0  0  0  0
   33.2230   17.7990   25.3680 F   0  0  0  0  0  0  0  0  0  0  0  0
   32.5240   15.7980   24.3480 C   0  0  0  0  0  0  0  0  0  0  0  0
   31.5930   14.8930   24.0040 N   0  0  0  0  0  0  0  0  0  0  0  0
   28.8600   11.8610   21.5080 C   0  0  0  0  0  0  0  0  0  0  0  0
   28.0210   10.9790   20.8510 C   0  0  0  0  0  0  0  0  0  0  0  0
   26.6860   11.2770   20.6620 C   0  0  0  0  0  0  0  0  0  0  0  0
   25.8900   10.4080   19.9880 F   0  0  0  0  0  0  0  0  0  0  0  0
   24.0560   13.6680   22.0480 C   0  0  0  0  0  0  0  0  0  0  0  0
   24.1060   12.8710   23.6340 S   0  0  0  0  0  0  0  0  0  0  0  0
   23.0100   13.4240   24.4090 O   0  0  0  0  0  0  0  0  0  0  0  0
   25.4450   12.7390   24.1160 O   0  0  0  0  0  0  0  0  0  0  0  0
   23.5423   10.9505   25.2879 H   0  0  0  0  0  0  0  0  0  0  0  0
   22.2656   10.1398   24.3187 H   0  0  0  0  0  0  0  0  0  0  0  0
   23.9408    9.4916   24.3187 H   0  0  0  0  0  0  0  0  0  0  0  0
   22.5490    9.3420   20.8380 H   0  0  0  0  0  0  0  0  0  0  0  0
   22.4610    9.2070   22.5350 H   0  0  0  0  0  0  0  0  0  0  0  0
   24.1627   14.5302   19.8188 H   0  0  0  0  0  0  0  0  0  0  0  0
   25.3875   13.4514   19.0688 H   0  0  0  0  0  0  0  0  0  0  0  0
   23.6544   12.9791   19.0688 H   0  0  0  0  0  0  0  0  0  0  0  0
   26.5726   14.2628   22.2083 H   0  0  0  0  0  0  0  0  0  0  0  0
   29.4690   14.7230   22.0980 H   0  0  0  0  0  0  0  0  0  0  0  0
   28.9038   16.3809   25.4330 H   0  0  0  0  0  0  0  0  0  0  0  0
   30.6715   18.0507   26.0402 H   0  0  0  0  0  0  0  0  0  0  0  0
   33.5640   15.6245   24.0345 H   0  0  0  0  0  0  0  0  0  0  0  0
   29.9249   11.6272   21.6541 H   0  0  0  0  0  0  0  0  0  0  0  0
   28.4229   10.0270   20.4739 H   0  0  0  0  0  0  0  0  0  0  0  0
   24.6366   14.6012   22.0942 H   0  0  0  0  0  0  0  0  0  0  0  0
   23.0078   13.8832   21.7930 H   0  0  0  0  0  0  0  0  0  0  0  0
  1  2  1  0
  2  3  1  0
  3  4  1  0
  3  5  2  0
  5  6  1  0
  6  7  1  6
  6  8  1  0
  8  9  2  0
  9 10  1  0
 10 11  1  0
 11 12  1  0
 12 13  2  0
 12 14  1  0
 14 15  2  0
 15 16  1  0
 16 17  2  0
 17 18  1  0
 17 19  1  0
 19 20  2  0
 10 21  2  0
 21 22  1  0
 22 23  2  0
 23 24  1  0
  6 25  1  0
 25 26  1  0
 26 27  2  0
 26 28  2  0
 26  2  1  0
 23  8  1  0
 20 14  1  0
  1 29  1  0
  1 30  1  0
  1 31  1  0
  4 32  1  0
  4 33  1  0
  7 34  1  0
  7 35  1  0
  7 36  1  0
  9 37  1  0
 11 38  1  0
 15 39  1  0
 16 40  1  0
 19 41  1  0
 21 42  1  0
 22 43  1  0
 25 44  1  0
 25 45  1  0
M  END
>  <meeko>  (4)
{"is_sidechain": false}

>  <source_group>  (4)
BACE1-476

>  <source_system>  (4)
BACE1_verubecestat

>  <source_run>  (4)
alternate_476_seed4409_ex32

>  <source_seed>  (4)
4409

>  <vina_pose_rank>  (4)
4

>  <vina_affinity_kcal_mol>  (4)
-8.3369999999999997

>  <vina_rmsd_to_crystal_angstrom>  (4)
5.2637

$$$$
BACE1_verubecestat__alternate_476_seed4409_ex32__pose05
     RDKit          3D

 45 47  0  0  0  0  0  0  0  0999 V2000
   17.0280   14.5030   26.4630 C   0  0  0  0  0  0  0  0  0  0  0  0
   17.8470   13.3460   26.8720 N   0  0  0  0  0  0  0  0  0  0  0  0
   18.0570   12.9890   28.2220 C   0  0  0  0  0  0  0  0  0  0  0  0
   17.3110   13.7160   29.1110 N   0  0  0  0  0  0  0  0  0  0  0  0
   18.8590   12.0430   28.6030 N   0  0  0  0  0  0  0  0  0  0  0  0
   19.7200   11.3380   27.6540 C   0  0  2  0  0  0  0  0  0  0  0  0
   20.0960   10.0630   28.4150 C   0  0  0  0  0  0  0  0  0  0  0  0
   20.9880   12.1180   27.3450 C   0  0  0  0  0  0  0  0  0  0  0  0
   21.6130   12.0130   26.1040 C   0  0  0  0  0  0  0  0  0  0  0  0
   22.7630   12.7050   25.7970 C   0  0  0  0  0  0  0  0  0  0  0  0
   23.2880   12.5130   24.5130 N   0  0  0  0  0  0  0  0  0  0  0  0
   23.1550   13.3270   23.4020 C   0  0  0  0  0  0  0  0  0  0  0  0
   22.4300   14.3110   23.3320 O   0  0  0  0  0  0  0  0  0  0  0  0
   24.0050   12.9600   22.2430 C   0  0  0  0  0  0  0  0  0  0  0  0
   23.4460   12.8620   20.9800 C   0  0  0  0  0  0  0  0  0  0  0  0
   24.2840   12.5140   19.9350 C   0  0  0  0  0  0  0  0  0  0  0  0
   25.6240   12.2820   20.1760 C   0  0  0  0  0  0  0  0  0  0  0  0
   26.4740   11.9330   19.1950 F   0  0  0  0  0  0  0  0  0  0  0  0
   26.0850   12.3980   21.4680 C   0  0  0  0  0  0  0  0  0  0  0  0
   25.2960   12.7290   22.5030 N   0  0  0  0  0  0  0  0  0  0  0  0
   23.3350   13.5640   26.7270 C   0  0  0  0  0  0  0  0  0  0  0  0
   22.7310   13.6780   27.9660 C   0  0  0  0  0  0  0  0  0  0  0  0
   21.5950   12.9530   28.2710 C   0  0  0  0  0  0  0  0  0  0  0  0
   21.0380   13.0600   29.5040 F   0  0  0  0  0  0  0  0  0  0  0  0
   18.9190   10.9110   26.4440 C   0  0  0  0  0  0  0  0  0  0  0  0
   18.3120   12.3280   25.5630 S   0  0  0  0  0  0  0  0  0  0  0  0
   17.0940   11.9070   24.8930 O   0  0  0  0  0  0  0  0  0  0  0  0
   19.3710   13.0480   24.9290 O   0  0  0  0  0  0  0  0  0  0  0  0
   16.6584   15.0252   27.3578 H   0  0  0  0  0  0  0  0  0  0  0  0
   17.6406   15.1921   25.8631 H   0  0  0  0  0  0  0  0  0  0  0  0
   16.1744   14.1543   25.8631 H   0  0  0  0  0  0  0  0  0  0  0  0
   17.3870   13.5410   30.0770 H   0  0  0  0  0  0  0  0  0  0  0  0
   16.6990   14.4150   28.7840 H   0  0  0  0  0  0  0  0  0  0  0  0
   20.0403   10.2520   29.4972 H   0  0  0  0  0  0  0  0  0  0  0  0
   19.3974    9.2566   28.1472 H   0  0  0  0  0  0  0  0  0  0  0  0
   21.1203    9.7647   28.1472 H   0  0  0  0  0  0  0  0  0  0  0  0
   21.1717   11.3535   25.3422 H   0  0  0  0  0  0  0  0  0  0  0  0
   23.8190   11.6940   24.3840 H   0  0  0  0  0  0  0  0  0  0  0  0
   22.3757   13.0536   20.8134 H   0  0  0  0  0  0  0  0  0  0  0  0
   23.8836   12.4224   18.9146 H   0  0  0  0  0  0  0  0  0  0  0  0
   27.1514   12.2104   21.6619 H   0  0  0  0  0  0  0  0  0  0  0  0
   24.2422   14.1370   26.4849 H   0  0  0  0  0  0  0  0  0  0  0  0
   23.1609   14.3551   28.7189 H   0  0  0  0  0  0  0  0  0  0  0  0
   19.5614   10.3183   25.7762 H   0  0  0  0  0  0  0  0  0  0  0  0
   18.0619   10.3095   26.7809 H   0  0  0  0  0  0  0  0  0  0  0  0
  1  2  1  0
  2  3  1  0
  3  4  1  0
  3  5  2  0
  5  6  1  0
  6  7  1  1
  6  8  1  0
  8  9  2  0
  9 10  1  0
 10 11  1  0
 11 12  1  0
 12 13  2  0
 12 14  1  0
 14 15  2  0
 15 16  1  0
 16 17  2  0
 17 18  1  0
 17 19  1  0
 19 20  2  0
 10 21  2  0
 21 22  1  0
 22 23  2  0
 23 24  1  0
  6 25  1  0
 25 26  1  0
 26 27  2  0
 26 28  2  0
 26  2  1  0
 23  8  1  0
 20 14  1  0
  1 29  1  0
  1 30  1  0
  1 31  1  0
  4 32  1  0
  4 33  1  0
  7 34  1  0
  7 35  1  0
  7 36  1  0
  9 37  1  0
 11 38  1  0
 15 39  1  0
 16 40  1  0
 19 41  1  0
 21 42  1  0
 22 43  1  0
 25 44  1  0
 25 45  1  0
M  END
>  <meeko>  (5)
{"is_sidechain": false}

>  <source_group>  (5)
BACE1-476

>  <source_system>  (5)
BACE1_verubecestat

>  <source_run>  (5)
alternate_476_seed4409_ex32

>  <source_seed>  (5)
4409

>  <vina_pose_rank>  (5)
5

>  <vina_affinity_kcal_mol>  (5)
-8.3209999999999997

>  <vina_rmsd_to_crystal_angstrom>  (5)
6.8190999999999997

$$$$
BACE1_verubecestat__alternate_476_seed4409_ex32__pose06
     RDKit          3D

 45 47  0  0  0  0  0  0  0  0999 V2000
   28.8560   16.9840   24.9260 C   0  0  0  0  0  0  0  0  0  0  0  0
   28.6710   15.7090   24.2040 N   0  0  0  0  0  0  0  0  0  0  0  0
   28.9730   15.5510   22.8330 C   0  0  0  0  0  0  0  0  0  0  0  0
   29.5920   16.6350   22.2710 N   0  0  0  0  0  0  0  0  0  0  0  0
   28.7160   14.4730   22.1580 N   0  0  0  0  0  0  0  0  0  0  0  0
   27.9710   13.3600   22.7430 C   0  0  2  0  0  0  0  0  0  0  0  0
   28.3160   12.1910   21.8150 C   0  0  0  0  0  0  0  0  0  0  0  0
   26.4680   13.5930   22.7000 C   0  0  0  0  0  0  0  0  0  0  0  0
   25.6240   13.0250   23.6520 C   0  0  0  0  0  0  0  0  0  0  0  0
   24.2610   13.2170   23.6360 C   0  0  0  0  0  0  0  0  0  0  0  0
   23.5270   12.5910   24.6510 N   0  0  0  0  0  0  0  0  0  0  0  0
   23.2860   13.0420   25.9370 C   0  0  0  0  0  0  0  0  0  0  0  0
   23.8000   14.0300   26.4450 O   0  0  0  0  0  0  0  0  0  0  0  0
   22.2960   12.2530   26.7100 C   0  0  0  0  0  0  0  0  0  0  0  0
   21.1060   11.8660   26.1160 C   0  0  0  0  0  0  0  0  0  0  0  0
   20.2180   11.1340   26.8840 C   0  0  0  0  0  0  0  0  0  0  0  0
   20.5380   10.8140   28.1890 C   0  0  0  0  0  0  0  0  0  0  0  0
   19.7030   10.1130   28.9750 F   0  0  0  0  0  0  0  0  0  0  0  0
   21.7430   11.2490   28.6920 C   0  0  0  0  0  0  0  0  0  0  0  0
   22.6220   11.9660   27.9740 N   0  0  0  0  0  0  0  0  0  0  0  0
   23.6750   14.0180   22.6630 C   0  0  0  0  0  0  0  0  0  0  0  0
   24.4980   14.5880   21.7080 C   0  0  0  0  0  0  0  0  0  0  0  0
   25.8600   14.3600   21.7180 C   0  0  0  0  0  0  0  0  0  0  0  0
   26.6410   14.9070   20.7520 F   0  0  0  0  0  0  0  0  0  0  0  0
   28.5280   13.0210   24.1080 C   0  0  0  0  0  0  0  0  0  0  0  0
   28.3020   14.3770   25.2300 S   0  0  0  0  0  0  0  0  0  0  0  0
   29.3670   14.2830   26.2130 O   0  0  0  0  0  0  0  0  0  0  0  0
   26.9230   14.5690   25.5560 O   0  0  0  0  0  0  0  0  0  0  0  0
   28.8291   16.7988   26.0100 H   0  0  0  0  0  0  0  0  0  0  0  0
   29.8272   17.4225   24.6529 H   0  0  0  0  0  0  0  0  0  0  0  0
   28.0495   17.6804   24.6529 H   0  0  0  0  0  0  0  0  0  0  0  0
   29.8420   16.6200   21.3190 H   0  0  0  0  0  0  0  0  0  0  0  0
   29.7870   17.4290   22.8190 H   0  0  0  0  0  0  0  0  0  0  0  0
   28.5764   11.3086   22.4180 H   0  0  0  0  0  0  0  0  0  0  0  0
   27.4482   11.9582   21.1803 H   0  0  0  0  0  0  0  0  0  0  0  0
   29.1711   12.4667   21.1803 H   0  0  0  0  0  0  0  0  0  0  0  0
   26.0625   12.4009   24.4446 H   0  0  0  0  0  0  0  0  0  0  0  0
   23.1310   11.7200   24.4210 H   0  0  0  0  0  0  0  0  0  0  0  0
   20.8758   12.1306   25.0734 H   0  0  0  0  0  0  0  0  0  0  0  0
   19.2587   10.8074   26.4560 H   0  0  0  0  0  0  0  0  0  0  0  0
   21.9980   10.9971   29.7320 H   0  0  0  0  0  0  0  0  0  0  0  0
   22.5891   14.1936   22.6525 H   0  0  0  0  0  0  0  0  0  0  0  0
   24.0614   15.2316   20.9301 H   0  0  0  0  0  0  0  0  0  0  0  0
   28.0068   12.1358   24.5013 H   0  0  0  0  0  0  0  0  0  0  0  0
   29.6046   12.8172   24.0108 H   0  0  0  0  0  0  0  0  0  0  0  0
  1  2  1  0
  2  3  1  0
  3  4  1  0
  3  5  2  0
  5  6  1  0
  6  7  1  6
  6  8  1  0
  8  9  2  0
  9 10  1  0
 10 11  1  0
 11 12  1  0
 12 13  2  0
 12 14  1  0
 14 15  2  0
 15 16  1  0
 16 17  2  0
 17 18  1  0
 17 19  1  0
 19 20  2  0
 10 21  2  0
 21 22  1  0
 22 23  2  0
 23 24  1  0
  6 25  1  0
 25 26  1  0
 26 27  2  0
 26 28  2  0
 26  2  1  0
 23  8  1  0
 20 14  1  0
  1 29  1  0
  1 30  1  0
  1 31  1  0
  4 32  1  0
  4 33  1  0
  7 34  1  0
  7 35  1  0
  7 36  1  0
  9 37  1  0
 11 38  1  0
 15 39  1  0
 16 40  1  0
 19 41  1  0
 21 42  1  0
 22 43  1  0
 25 44  1  0
 25 45  1  0
M  END
>  <meeko>  (6)
{"is_sidechain": false}

>  <source_group>  (6)
BACE1-476

>  <source_system>  (6)
BACE1_verubecestat

>  <source_run>  (6)
alternate_476_seed4409_ex32

>  <source_seed>  (6)
4409

>  <vina_pose_rank>  (6)
6

>  <vina_affinity_kcal_mol>  (6)
-8.1300000000000008

>  <vina_rmsd_to_crystal_angstrom>  (6)
8.2057000000000002

$$$$
BACE1_verubecestat__alternate_476_seed4409_ex32__pose07
     RDKit          3D

 45 47  0  0  0  0  0  0  0  0999 V2000
   25.8760   16.2580   20.8740 C   0  0  0  0  0  0  0  0  0  0  0  0
   26.3800   14.8710   20.8850 N   0  0  0  0  0  0  0  0  0  0  0  0
   26.6640   14.1450   19.7070 C   0  0  0  0  0  0  0  0  0  0  0  0
   26.5750   14.8890   18.5610 N   0  0  0  0  0  0  0  0  0  0  0  0
   27.0030   12.8930   19.6950 N   0  0  0  0  0  0  0  0  0  0  0  0
   27.0020   12.0850   20.9130 C   0  0  2  0  0  0  0  0  0  0  0  0
   27.8850   10.8930   20.5350 C   0  0  0  0  0  0  0  0  0  0  0  0
   25.6110   11.5750   21.2590 C   0  0  0  0  0  0  0  0  0  0  0  0
   25.1010   11.6940   22.5510 C   0  0  0  0  0  0  0  0  0  0  0  0
   23.8480   11.2390   22.8920 C   0  0  0  0  0  0  0  0  0  0  0  0
   23.4550   11.4230   24.2240 N   0  0  0  0  0  0  0  0  0  0  0  0
   22.6990   12.4500   24.7610 C   0  0  0  0  0  0  0  0  0  0  0  0
   22.3520   13.4580   24.1590 O   0  0  0  0  0  0  0  0  0  0  0  0
   22.2720   12.2540   26.1680 C   0  0  0  0  0  0  0  0  0  0  0  0
   21.6660   11.0680   26.5470 C   0  0  0  0  0  0  0  0  0  0  0  0
   21.2850   10.9390   27.8710 C   0  0  0  0  0  0  0  0  0  0  0  0
   21.5200   11.9720   28.7580 C   0  0  0  0  0  0  0  0  0  0  0  0
   21.1600   11.8960   30.0500 F   0  0  0  0  0  0  0  0  0  0  0  0
   22.1240   13.1150   28.2850 C   0  0  0  0  0  0  0  0  0  0  0  0
   22.4980   13.2720   27.0040 N   0  0  0  0  0  0  0  0  0  0  0  0
   23.0260   10.6560   21.9360 C   0  0  0  0  0  0  0  0  0  0  0  0
   23.5180   10.5260   20.6490 C   0  0  0  0  0  0  0  0  0  0  0  0
   24.7900   10.9580   20.3280 C   0  0  0  0  0  0  0  0  0  0  0  0
   25.2590   10.7920   19.0650 F   0  0  0  0  0  0  0  0  0  0  0  0
   27.7080   12.8240   22.0280 C   0  0  0  0  0  0  0  0  0  0  0  0
   26.8320   14.3090   22.4490 S   0  0  0  0  0  0  0  0  0  0  0  0
   27.8180   15.2380   22.9710 O   0  0  0  0  0  0  0  0  0  0  0  0
   25.5830   14.0230   23.0830 O   0  0  0  0  0  0  0  0  0  0  0  0
   25.7481   16.6099   21.9083 H   0  0  0  0  0  0  0  0  0  0  0  0
   26.5962   16.9057   20.3527 H   0  0  0  0  0  0  0  0  0  0  0  0
   24.9080   16.2922   20.3527 H   0  0  0  0  0  0  0  0  0  0  0  0
   26.7550   14.4710   17.6880 H   0  0  0  0  0  0  0  0  0  0  0  0
   26.3320   15.8420   18.6100 H   0  0  0  0  0  0  0  0  0  0  0  0
   28.2489   10.4017   21.4494 H   0  0  0  0  0  0  0  0  0  0  0  0
   27.2986   10.1758   19.9420 H   0  0  0  0  0  0  0  0  0  0  0  0
   28.7420   11.2450   19.9420 H   0  0  0  0  0  0  0  0  0  0  0  0
   25.7221   12.1683   23.3251 H   0  0  0  0  0  0  0  0  0  0  0  0
   23.7540   10.7330   24.8590 H   0  0  0  0  0  0  0  0  0  0  0  0
   21.4939   10.2584   25.8224 H   0  0  0  0  0  0  0  0  0  0  0  0
   20.7962   10.0162   28.2165 H   0  0  0  0  0  0  0  0  0  0  0  0
   22.3093   13.9393   28.9894 H   0  0  0  0  0  0  0  0  0  0  0  0
   22.0148   10.3082   22.1940 H   0  0  0  0  0  0  0  0  0  0  0  0
   22.8870   10.0722   19.8706 H   0  0  0  0  0  0  0  0  0  0  0  0
   27.7634   12.1740   22.9137 H   0  0  0  0  0  0  0  0  0  0  0  0
   28.7191   13.0938   21.6889 H   0  0  0  0  0  0  0  0  0  0  0  0
  1  2  1  0
  2  3  1  0
  3  4  1  0
  3  5  2  0
  5  6  1  0
  6  7  1  6
  6  8  1  0
  8  9  2  0
  9 10  1  0
 10 11  1  0
 11 12  1  0
 12 13  2  0
 12 14  1  0
 14 15  2  0
 15 16  1  0
 16 17  2  0
 17 18  1  0
 17 19  1  0
 19 20  2  0
 10 21  2  0
 21 22  1  0
 22 23  2  0
 23 24  1  0
  6 25  1  0
 25 26  1  0
 26 27  2  0
 26 28  2  0
 26  2  1  0
 23  8  1  0
 20 14  1  0
  1 29  1  0
  1 30  1  0
  1 31  1  0
  4 32  1  0
  4 33  1  0
  7 34  1  0
  7 35  1  0
  7 36  1  0
  9 37  1  0
 11 38  1  0
 15 39  1  0
 16 40  1  0
 19 41  1  0
 21 42  1  0
 22 43  1  0
 25 44  1  0
 25 45  1  0
M  END
>  <meeko>  (7)
{"is_sidechain": false}

>  <source_group>  (7)
BACE1-476

>  <source_system>  (7)
BACE1_verubecestat

>  <source_run>  (7)
alternate_476_seed4409_ex32

>  <source_seed>  (7)
4409

>  <vina_pose_rank>  (7)
7

>  <vina_affinity_kcal_mol>  (7)
-7.9589999999999996

>  <vina_rmsd_to_crystal_angstrom>  (7)
7.2690000000000001

$$$$
BACE1_verubecestat__alternate_476_seed4409_ex32__pose08
     RDKit          3D

 45 47  0  0  0  0  0  0  0  0999 V2000
   22.6330   11.3600   23.6050 C   0  0  0  0  0  0  0  0  0  0  0  0
   22.2070   11.1790   25.0070 N   0  0  0  0  0  0  0  0  0  0  0  0
   21.8360    9.9260   25.5430 C   0  0  0  0  0  0  0  0  0  0  0  0
   22.0520    8.8730   24.6950 N   0  0  0  0  0  0  0  0  0  0  0  0
   21.3570    9.7650   26.7380 N   0  0  0  0  0  0  0  0  0  0  0  0
   21.0430   10.9040   27.5990 C   0  0  2  0  0  0  0  0  0  0  0  0
   20.9790   10.2740   28.9920 C   0  0  0  0  0  0  0  0  0  0  0  0
   19.6860   11.5100   27.2720 C   0  0  0  0  0  0  0  0  0  0  0  0
   18.8050   10.8730   26.3990 C   0  0  0  0  0  0  0  0  0  0  0  0
   17.5730   11.3990   26.0830 C   0  0  0  0  0  0  0  0  0  0  0  0
   16.7830   10.6570   25.1940 N   0  0  0  0  0  0  0  0  0  0  0  0
   15.4300   10.7880   24.9370 C   0  0  0  0  0  0  0  0  0  0  0  0
   14.6610   11.5100   25.5590 O   0  0  0  0  0  0  0  0  0  0  0  0
   14.9250    9.9970   23.7890 C   0  0  0  0  0  0  0  0  0  0  0  0
   15.6760    8.9480   23.2880 C   0  0  0  0  0  0  0  0  0  0  0  0
   15.1580    8.2460   22.2140 C   0  0  0  0  0  0  0  0  0  0  0  0
   13.9320    8.6020   21.6870 C   0  0  0  0  0  0  0  0  0  0  0  0
   13.3930    7.9560   20.6390 F   0  0  0  0  0  0  0  0  0  0  0  0
   13.2620    9.6650   22.2490 C   0  0  0  0  0  0  0  0  0  0  0  0
   13.7420   10.3690   23.2880 N   0  0  0  0  0  0  0  0  0  0  0  0
   17.1510   12.5940   26.6520 C   0  0  0  0  0  0  0  0  0  0  0  0
   18.0140   13.2410   27.5180 C   0  0  0  0  0  0  0  0  0  0  0  0
   19.2610   12.7180   27.8010 C   0  0  0  0  0  0  0  0  0  0  0  0
   20.1000   13.3880   28.6320 F   0  0  0  0  0  0  0  0  0  0  0  0
   22.1960   11.8830   27.6070 C   0  0  0  0  0  0  0  0  0  0  0  0
   22.4450   12.5720   25.9900 S   0  0  0  0  0  0  0  0  0  0  0  0
   23.8510   12.9250   25.9020 O   0  0  0  0  0  0  0  0  0  0  0  0
   21.3740   13.4410   25.6160 O   0  0  0  0  0  0  0  0  0  0  0  0
   23.6452   11.7901   23.5819 H   0  0  0  0  0  0  0  0  0  0  0  0
   22.6368   10.3858   23.0943 H   0  0  0  0  0  0  0  0  0  0  0  0
   21.9344   12.0390   23.0943 H   0  0  0  0  0  0  0  0  0  0  0  0
   21.8250    7.9580   24.9790 H   0  0  0  0  0  0  0  0  0  0  0  0
   22.4340    9.0300   23.8010 H   0  0  0  0  0  0  0  0  0  0  0  0
   21.0591   11.0623   29.7550 H   0  0  0  0  0  0  0  0  0  0  0  0
   20.0224    9.7442   29.1112 H   0  0  0  0  0  0  0  0  0  0  0  0
   21.8095    9.5626   29.1112 H   0  0  0  0  0  0  0  0  0  0  0  0
   19.1052    9.9162   25.9468 H   0  0  0  0  0  0  0  0  0  0  0  0
   17.2510    9.9540   24.6880 H   0  0  0  0  0  0  0  0  0  0  0  0
   16.6488    8.6821   23.7274 H   0  0  0  0  0  0  0  0  0  0  0  0
   15.7214    7.4063   21.7809 H   0  0  0  0  0  0  0  0  0  0  0  0
   12.2873    9.9518   21.8275 H   0  0  0  0  0  0  0  0  0  0  0  0
   16.1605   13.0130   26.4209 H   0  0  0  0  0  0  0  0  0  0  0  0
   17.7029   14.1856   27.9881 H   0  0  0  0  0  0  0  0  0  0  0  0
   21.9754   12.6950   28.3155 H   0  0  0  0  0  0  0  0  0  0  0  0
   23.1099   11.3507   27.9093 H   0  0  0  0  0  0  0  0  0  0  0  0
  1  2  1  0
  2  3  1  0
  3  4  1  0
  3  5  2  0
  5  6  1  0
  6  7  1  1
  6  8  1  0
  8  9  2  0
  9 10  1  0
 10 11  1  0
 11 12  1  0
 12 13  2  0
 12 14  1  0
 14 15  2  0
 15 16  1  0
 16 17  2  0
 17 18  1  0
 17 19  1  0
 19 20  2  0
 10 21  2  0
 21 22  1  0
 22 23  2  0
 23 24  1  0
  6 25  1  0
 25 26  1  0
 26 27  2  0
 26 28  2  0
 26  2  1  0
 23  8  1  0
 20 14  1  0
  1 29  1  0
  1 30  1  0
  1 31  1  0
  4 32  1  0
  4 33  1  0
  7 34  1  0
  7 35  1  0
  7 36  1  0
  9 37  1  0
 11 38  1  0
 15 39  1  0
 16 40  1  0
 19 41  1  0
 21 42  1  0
 22 43  1  0
 25 44  1  0
 25 45  1  0
M  END
>  <meeko>  (8)
{"is_sidechain": false}

>  <source_group>  (8)
BACE1-476

>  <source_system>  (8)
BACE1_verubecestat

>  <source_run>  (8)
alternate_476_seed4409_ex32

>  <source_seed>  (8)
4409

>  <vina_pose_rank>  (8)
8

>  <vina_affinity_kcal_mol>  (8)
-7.7380000000000004

>  <vina_rmsd_to_crystal_angstrom>  (8)
10.4771

$$$$
BACE1_verubecestat__alternate_476_seed4409_ex32__pose09
     RDKit          3D

 45 47  0  0  0  0  0  0  0  0999 V2000
   29.0580   17.1460   24.9020 C   0  0  0  0  0  0  0  0  0  0  0  0
   28.8080   15.8270   24.2880 N   0  0  0  0  0  0  0  0  0  0  0  0
   29.1380   15.5260   22.9480 C   0  0  0  0  0  0  0  0  0  0  0  0
   29.8470   16.5120   22.3160 N   0  0  0  0  0  0  0  0  0  0  0  0
   28.8270   14.4120   22.3620 N   0  0  0  0  0  0  0  0  0  0  0  0
   27.9890   13.4080   23.0140 C   0  0  2  0  0  0  0  0  0  0  0  0
   28.2790   12.1400   22.2060 C   0  0  0  0  0  0  0  0  0  0  0  0
   26.5090   13.7360   22.8970 C   0  0  0  0  0  0  0  0  0  0  0  0
   25.6300   13.4850   23.9500 C   0  0  0  0  0  0  0  0  0  0  0  0
   24.2860   13.7690   23.8710 C   0  0  0  0  0  0  0  0  0  0  0  0
   23.5130   13.4700   25.0010 N   0  0  0  0  0  0  0  0  0  0  0  0
   23.0790   12.2320   25.4390 C   0  0  0  0  0  0  0  0  0  0  0  0
   23.2000   11.1830   24.8190 O   0  0  0  0  0  0  0  0  0  0  0  0
   22.4570   12.2190   26.7850 C   0  0  0  0  0  0  0  0  0  0  0  0
   22.6860   13.2650   27.6620 C   0  0  0  0  0  0  0  0  0  0  0  0
   22.0830   13.2000   28.9060 C   0  0  0  0  0  0  0  0  0  0  0  0
   21.2840   12.1200   29.2280 C   0  0  0  0  0  0  0  0  0  0  0  0
   20.6850   12.0090   30.4260 F   0  0  0  0  0  0  0  0  0  0  0  0
   21.1210   11.1260   28.2900 C   0  0  0  0  0  0  0  0  0  0  0  0
   21.6990   11.1580   27.0780 N   0  0  0  0  0  0  0  0  0  0  0  0
   23.7550   14.3480   22.7240 C   0  0  0  0  0  0  0  0  0  0  0  0
   24.6120   14.6010   21.6680 C   0  0  0  0  0  0  0  0  0  0  0  0
   25.9530   14.2810   21.7500 C   0  0  0  0  0  0  0  0  0  0  0  0
   26.7670   14.5130   20.6880 F   0  0  0  0  0  0  0  0  0  0  0  0
   28.4800   13.1570   24.4230 C   0  0  0  0  0  0  0  0  0  0  0  0
   28.3160   14.6210   25.4140 S   0  0  0  0  0  0  0  0  0  0  0  0
   29.3420   14.5450   26.4380 O   0  0  0  0  0  0  0  0  0  0  0  0
   26.9450   14.9320   25.6720 O   0  0  0  0  0  0  0  0  0  0  0  0
   29.0398   17.0498   25.9976 H   0  0  0  0  0  0  0  0  0  0  0  0
   30.0427   17.5183   24.5829 H   0  0  0  0  0  0  0  0  0  0  0  0
   28.2778   17.8528   24.5829 H   0  0  0  0  0  0  0  0  0  0  0  0
   30.1240   16.3950   21.3790 H   0  0  0  0  0  0  0  0  0  0  0  0
   30.0810   17.3380   22.7990 H   0  0  0  0  0  0  0  0  0  0  0  0
   28.4704   11.3029   22.8935 H   0  0  0  0  0  0  0  0  0  0  0  0
   27.4119   11.9029   21.5720 H   0  0  0  0  0  0  0  0  0  0  0  0
   29.1630   12.3033   21.5720 H   0  0  0  0  0  0  0  0  0  0  0  0
   26.0252   13.0441   24.8771 H   0  0  0  0  0  0  0  0  0  0  0  0
   23.2450   14.2400   25.5530 H   0  0  0  0  0  0  0  0  0  0  0  0
   23.3235   14.1162   27.3807 H   0  0  0  0  0  0  0  0  0  0  0  0
   22.2396   14.0069   29.6371 H   0  0  0  0  0  0  0  0  0  0  0  0
   20.4870   10.2641   28.5452 H   0  0  0  0  0  0  0  0  0  0  0  0
   22.6857   14.5974   22.6582 H   0  0  0  0  0  0  0  0  0  0  0  0
   24.2199   15.0635   20.7502 H   0  0  0  0  0  0  0  0  0  0  0  0
   27.8868   12.3476   24.8734 H   0  0  0  0  0  0  0  0  0  0  0  0
   29.5422   12.8741   24.3825 H   0  0  0  0  0  0  0  0  0  0  0  0
  1  2  1  0
  2  3  1  0
  3  4  1  0
  3  5  2  0
  5  6  1  0
  6  7  1  6
  6  8  1  0
  8  9  2  0
  9 10  1  0
 10 11  1  0
 11 12  1  0
 12 13  2  0
 12 14  1  0
 14 15  2  0
 15 16  1  0
 16 17  2  0
 17 18  1  0
 17 19  1  0
 19 20  2  0
 10 21  2  0
 21 22  1  0
 22 23  2  0
 23 24  1  0
  6 25  1  0
 25 26  1  0
 26 27  2  0
 26 28  2  0
 26  2  1  0
 23  8  1  0
 20 14  1  0
  1 29  1  0
  1 30  1  0
  1 31  1  0
  4 32  1  0
  4 33  1  0
  7 34  1  0
  7 35  1  0
  7 36  1  0
  9 37  1  0
 11 38  1  0
 15 39  1  0
 16 40  1  0
 19 41  1  0
 21 42  1  0
 22 43  1  0
 25 44  1  0
 25 45  1  0
M  END
>  <meeko>  (9)
{"is_sidechain": false}

>  <source_group>  (9)
BACE1-476

>  <source_system>  (9)
BACE1_verubecestat

>  <source_run>  (9)
alternate_476_seed4409_ex32

>  <source_seed>  (9)
4409

>  <vina_pose_rank>  (9)
9

>  <vina_affinity_kcal_mol>  (9)
-7.6100000000000003

>  <vina_rmsd_to_crystal_angstrom>  (9)
8.2302999999999997

$$$$
BACE1_verubecestat__alternate_476_seed4409_ex32__pose10
     RDKit          3D

 45 47  0  0  0  0  0  0  0  0999 V2000
   24.5100   13.7050   19.6620 C   0  0  0  0  0  0  0  0  0  0  0  0
   25.8090   13.5610   20.3490 N   0  0  0  0  0  0  0  0  0  0  0  0
   26.4200   12.3100   20.5870 C   0  0  0  0  0  0  0  0  0  0  0  0
   25.7800   11.2570   19.9920 N   0  0  0  0  0  0  0  0  0  0  0  0
   27.5040   12.1580   21.2830 N   0  0  0  0  0  0  0  0  0  0  0  0
   28.1260   13.2750   21.9920 C   0  0  2  0  0  0  0  0  0  0  0  0
   29.5490   12.7710   22.2460 C   0  0  0  0  0  0  0  0  0  0  0  0
   27.4550   13.5460   23.3300 C   0  0  0  0  0  0  0  0  0  0  0  0
   26.2200   12.9800   23.6440 C   0  0  0  0  0  0  0  0  0  0  0  0
   25.5880   13.2100   24.8450 C   0  0  0  0  0  0  0  0  0  0  0  0
   24.3520   12.5790   25.0350 N   0  0  0  0  0  0  0  0  0  0  0  0
   23.3110   12.9650   25.8610 C   0  0  0  0  0  0  0  0  0  0  0  0
   23.3590   13.8780   26.6750 O   0  0  0  0  0  0  0  0  0  0  0  0
   22.0490   12.2070   25.6840 C   0  0  0  0  0  0  0  0  0  0  0  0
   20.8320   12.8340   25.8870 C   0  0  0  0  0  0  0  0  0  0  0  0
   19.6860   12.0780   25.7110 C   0  0  0  0  0  0  0  0  0  0  0  0
   19.7870   10.7510   25.3420 C   0  0  0  0  0  0  0  0  0  0  0  0
   18.7030    9.9760   25.1680 F   0  0  0  0  0  0  0  0  0  0  0  0
   21.0430   10.2150   25.1690 C   0  0  0  0  0  0  0  0  0  0  0  0
   22.1730   10.9210   25.3390 N   0  0  0  0  0  0  0  0  0  0  0  0
   26.1840   14.0120   25.8110 C   0  0  0  0  0  0  0  0  0  0  0  0
   27.4090   14.5840   25.5150 C   0  0  0  0  0  0  0  0  0  0  0  0
   28.0160   14.3700   24.2930 C   0  0  0  0  0  0  0  0  0  0  0  0
   29.2030   14.9680   24.0170 F   0  0  0  0  0  0  0  0  0  0  0  0
   28.2360   14.4740   21.0770 C   0  0  0  0  0  0  0  0  0  0  0  0
   26.6260   15.0540   20.6060 S   0  0  0  0  0  0  0  0  0  0  0  0
   26.7780   15.6900   19.3090 O   0  0  0  0  0  0  0  0  0  0  0  0
   25.9330   15.6390   21.7110 O   0  0  0  0  0  0  0  0  0  0  0  0
   23.7078   13.7939   20.4094 H   0  0  0  0  0  0  0  0  0  0  0  0
   24.5262   14.6069   19.0324 H   0  0  0  0  0  0  0  0  0  0  0  0
   24.3283   12.8215   19.0324 H   0  0  0  0  0  0  0  0  0  0  0  0
   26.1310   10.3430   20.0990 H   0  0  0  0  0  0  0  0  0  0  0  0
   24.9690   11.4130   19.4560 H   0  0  0  0  0  0  0  0  0  0  0  0
   29.7276   12.7077   23.3296 H   0  0  0  0  0  0  0  0  0  0  0  0
   29.6711   11.7749   21.7955 H   0  0  0  0  0  0  0  0  0  0  0  0
   30.2708   13.4682   21.7955 H   0  0  0  0  0  0  0  0  0  0  0  0
   25.7332   12.3262   22.9054 H   0  0  0  0  0  0  0  0  0  0  0  0
   24.2060   11.7560   24.5150 H   0  0  0  0  0  0  0  0  0  0  0  0
   20.7775   13.8936   26.1774 H   0  0  0  0  0  0  0  0  0  0  0  0
   18.6965   12.5333   25.8648 H   0  0  0  0  0  0  0  0  0  0  0  0
   21.1253    9.1575   24.8775 H   0  0  0  0  0  0  0  0  0  0  0  0
   25.6968   14.1869   26.7816 H   0  0  0  0  0  0  0  0  0  0  0  0
   27.9063   15.2181   26.2637 H   0  0  0  0  0  0  0  0  0  0  0  0
   28.7711   15.2799   21.6006 H   0  0  0  0  0  0  0  0  0  0  0  0
   28.7842   14.1778   20.1705 H   0  0  0  0  0  0  0  0  0  0  0  0
  1  2  1  0
  2  3  1  0
  3  4  1  0
  3  5  2  0
  5  6  1  0
  6  7  1  1
  6  8  1  0
  8  9  2  0
  9 10  1  0
 10 11  1  0
 11 12  1  0
 12 13  2  0
 12 14  1  0
 14 15  2  0
 15 16  1  0
 16 17  2  0
 17 18  1  0
 17 19  1  0
 19 20  2  0
 10 21  2  0
 21 22  1  0
 22 23  2  0
 23 24  1  0
  6 25  1  0
 25 26  1  0
 26 27  2  0
 26 28  2  0
 26  2  1  0
 23  8  1  0
 20 14  1  0
  1 29  1  0
  1 30  1  0
  1 31  1  0
  4 32  1  0
  4 33  1  0
  7 34  1  0
  7 35  1  0
  7 36  1  0
  9 37  1  0
 11 38  1  0
 15 39  1  0
 16 40  1  0
 19 41  1  0
 21 42  1  0
 22 43  1  0
 25 44  1  0
 25 45  1  0
M  END
>  <meeko>  (10)
{"is_sidechain": false}

>  <source_group>  (10)
BACE1-476

>  <source_system>  (10)
BACE1_verubecestat

>  <source_run>  (10)
alternate_476_seed4409_ex32

>  <source_seed>  (10)
4409

>  <vina_pose_rank>  (10)
10

>  <vina_affinity_kcal_mol>  (10)
-7.5179999999999998

>  <vina_rmsd_to_crystal_angstrom>  (10)
8.0541

$$$$
BACE1_verubecestat__alternate_476_seed4409_ex32__pose11
     RDKit          3D

 45 47  0  0  0  0  0  0  0  0999 V2000
   25.1750    9.8430   20.7970 C   0  0  0  0  0  0  0  0  0  0  0  0
   25.2950   11.3120   20.8750 N   0  0  0  0  0  0  0  0  0  0  0  0
   26.4360   12.0160   20.4290 C   0  0  0  0  0  0  0  0  0  0  0  0
   27.3530   11.2340   19.7800 N   0  0  0  0  0  0  0  0  0  0  0  0
   26.6040   13.2930   20.5880 N   0  0  0  0  0  0  0  0  0  0  0  0
   25.6640   14.1000   21.3640 C   0  0  2  0  0  0  0  0  0  0  0  0
   25.9700   15.5260   20.8970 C   0  0  0  0  0  0  0  0  0  0  0  0
   25.9290   14.0060   22.8590 C   0  0  0  0  0  0  0  0  0  0  0  0
   24.8780   13.9450   23.7730 C   0  0  0  0  0  0  0  0  0  0  0  0
   25.0880   13.8620   25.1310 C   0  0  0  0  0  0  0  0  0  0  0  0
   23.9460   13.8040   25.9410 N   0  0  0  0  0  0  0  0  0  0  0  0
   23.2130   12.6900   26.3100 C   0  0  0  0  0  0  0  0  0  0  0  0
   23.3790   11.5600   25.8700 O   0  0  0  0  0  0  0  0  0  0  0  0
   22.1810   12.9280   27.3480 C   0  0  0  0  0  0  0  0  0  0  0  0
   22.5000   13.6430   28.4890 C   0  0  0  0  0  0  0  0  0  0  0  0
   21.4990   13.8330   29.4260 C   0  0  0  0  0  0  0  0  0  0  0  0
   20.2370   13.3180   29.1980 C   0  0  0  0  0  0  0  0  0  0  0  0
   19.2360   13.4700   30.0820 F   0  0  0  0  0  0  0  0  0  0  0  0
   20.0180   12.6160   28.0340 C   0  0  0  0  0  0  0  0  0  0  0  0
   20.9710   12.4100   27.1100 N   0  0  0  0  0  0  0  0  0  0  0  0
   26.3800   13.8130   25.6410 C   0  0  0  0  0  0  0  0  0  0  0  0
   27.4350   13.8760   24.7480 C   0  0  0  0  0  0  0  0  0  0  0  0
   27.2090   13.9920   23.3910 C   0  0  0  0  0  0  0  0  0  0  0  0
   28.2620   14.0810   22.5380 F   0  0  0  0  0  0  0  0  0  0  0  0
   24.2440   13.7910   20.9440 C   0  0  0  0  0  0  0  0  0  0  0  0
   23.8330   12.1050   21.3170 S   0  0  0  0  0  0  0  0  0  0  0  0
   22.8190   11.7050   20.3580 O   0  0  0  0  0  0  0  0  0  0  0  0
   23.7370   11.8850   22.7260 O   0  0  0  0  0  0  0  0  0  0  0  0
   25.1407    9.4234   21.8133 H   0  0  0  0  0  0  0  0  0  0  0  0
   24.2523    9.5785   20.2598 H   0  0  0  0  0  0  0  0  0  0  0  0
   26.0426    9.4322   20.2598 H   0  0  0  0  0  0  0  0  0  0  0  0
   28.1830   11.6340   19.4320 H   0  0  0  0  0  0  0  0  0  0  0  0
   27.1840   10.2710   19.6620 H   0  0  0  0  0  0  0  0  0  0  0  0
   26.1096   16.1766   21.7729 H   0  0  0  0  0  0  0  0  0  0  0  0
   26.8882   15.5244   20.2913 H   0  0  0  0  0  0  0  0  0  0  0  0
   25.1319   15.9013   20.2913 H   0  0  0  0  0  0  0  0  0  0  0  0
   23.8448   13.9638   23.3959 H   0  0  0  0  0  0  0  0  0  0  0  0
   23.6250   14.6660   26.2920 H   0  0  0  0  0  0  0  0  0  0  0  0
   23.5117   14.0455   28.6456 H   0  0  0  0  0  0  0  0  0  0  0  0
   21.7075   14.3925   30.3498 H   0  0  0  0  0  0  0  0  0  0  0  0
   19.0144   12.2041   27.8519 H   0  0  0  0  0  0  0  0  0  0  0  0
   26.5586   13.7267   26.7230 H   0  0  0  0  0  0  0  0  0  0  0  0
   28.4677   13.8331   25.1243 H   0  0  0  0  0  0  0  0  0  0  0  0
   23.5548   14.4583   21.4822 H   0  0  0  0  0  0  0  0  0  0  0  0
   24.1544   13.9453   19.8586 H   0  0  0  0  0  0  0  0  0  0  0  0
  1  2  1  0
  2  3  1  0
  3  4  1  0
  3  5  2  0
  5  6  1  0
  6  7  1  6
  6  8  1  0
  8  9  2  0
  9 10  1  0
 10 11  1  0
 11 12  1  0
 12 13  2  0
 12 14  1  0
 14 15  2  0
 15 16  1  0
 16 17  2  0
 17 18  1  0
 17 19  1  0
 19 20  2  0
 10 21  2  0
 21 22  1  0
 22 23  2  0
 23 24  1  0
  6 25  1  0
 25 26  1  0
 26 27  2  0
 26 28  2  0
 26  2  1  0
 23  8  1  0
 20 14  1  0
  1 29  1  0
  1 30  1  0
  1 31  1  0
  4 32  1  0
  4 33  1  0
  7 34  1  0
  7 35  1  0
  7 36  1  0
  9 37  1  0
 11 38  1  0
 15 39  1  0
 16 40  1  0
 19 41  1  0
 21 42  1  0
 22 43  1  0
 25 44  1  0
 25 45  1  0
M  END
>  <meeko>  (11)
{"is_sidechain": false}

>  <source_group>  (11)
BACE1-476

>  <source_system>  (11)
BACE1_verubecestat

>  <source_run>  (11)
alternate_476_seed4409_ex32

>  <source_seed>  (11)
4409

>  <vina_pose_rank>  (11)
11

>  <vina_affinity_kcal_mol>  (11)
-7.5179999999999998

>  <vina_rmsd_to_crystal_angstrom>  (11)
7.9470999999999998

$$$$
BACE1_verubecestat__alternate_476_seed4409_ex32__pose12
     RDKit          3D

 45 47  0  0  0  0  0  0  0  0999 V2000
   26.8690   15.2470   24.6620 C   0  0  0  0  0  0  0  0  0  0  0  0
   26.4250   14.0240   23.9640 N   0  0  0  0  0  0  0  0  0  0  0  0
   27.3090   13.1730   23.2640 C   0  0  0  0  0  0  0  0  0  0  0  0
   28.6310   13.4980   23.4170 N   0  0  0  0  0  0  0  0  0  0  0  0
   26.9230   12.1570   22.5550 N   0  0  0  0  0  0  0  0  0  0  0  0
   25.5080   11.8770   22.3210 C   0  0  2  0  0  0  0  0  0  0  0  0
   25.5160   10.4090   21.8860 C   0  0  0  0  0  0  0  0  0  0  0  0
   24.9380   12.7210   21.1920 C   0  0  0  0  0  0  0  0  0  0  0  0
   25.7500   13.5880   20.4610 C   0  0  0  0  0  0  0  0  0  0  0  0
   25.2610   14.3660   19.4360 C   0  0  0  0  0  0  0  0  0  0  0  0
   26.1830   15.1920   18.7800 N   0  0  0  0  0  0  0  0  0  0  0  0
   26.5570   16.4840   19.1040 C   0  0  0  0  0  0  0  0  0  0  0  0
   26.0310   17.1750   19.9670 O   0  0  0  0  0  0  0  0  0  0  0  0
   27.7130   17.0180   18.3430 C   0  0  0  0  0  0  0  0  0  0  0  0
   28.8760   17.3650   19.0070 C   0  0  0  0  0  0  0  0  0  0  0  0
   29.9230   17.8600   18.2480 C   0  0  0  0  0  0  0  0  0  0  0  0
   29.7800   17.9870   16.8800 C   0  0  0  0  0  0  0  0  0  0  0  0
   30.7640   18.4710   16.1040 F   0  0  0  0  0  0  0  0  0  0  0  0
   28.5810   17.6200   16.3110 C   0  0  0  0  0  0  0  0  0  0  0  0
   27.5460   17.1430   17.0220 N   0  0  0  0  0  0  0  0  0  0  0  0
   23.9210   14.2930   19.0750 C   0  0  0  0  0  0  0  0  0  0  0  0
   23.1000   13.4410   19.7920 C   0  0  0  0  0  0  0  0  0  0  0  0
   23.5980   12.6900   20.8390 C   0  0  0  0  0  0  0  0  0  0  0  0
   22.7650   11.8830   21.5450 F   0  0  0  0  0  0  0  0  0  0  0  0
   24.7420   11.9490   23.6240 C   0  0  0  0  0  0  0  0  0  0  0  0
   24.7910   13.5940   24.2900 S   0  0  0  0  0  0  0  0  0  0  0  0
   24.6600   13.4610   25.7300 O   0  0  0  0  0  0  0  0  0  0  0  0
   24.0310   14.5080   23.4950 O   0  0  0  0  0  0  0  0  0  0  0  0
   26.8120   15.0899   25.7492 H   0  0  0  0  0  0  0  0  0  0  0  0
   27.9071   15.4746   24.3784 H   0  0  0  0  0  0  0  0  0  0  0  0
   26.2187   16.0876   24.3784 H   0  0  0  0  0  0  0  0  0  0  0  0
   29.3240   12.9620   22.9680 H   0  0  0  0  0  0  0  0  0  0  0  0
   28.8880   14.2650   23.9770 H   0  0  0  0  0  0  0  0  0  0  0  0
   25.5195    9.7628   22.7762 H   0  0  0  0  0  0  0  0  0  0  0  0
   24.6190   10.1999   21.2846 H   0  0  0  0  0  0  0  0  0  0  0  0
   26.4152   10.2097   21.2846 H   0  0  0  0  0  0  0  0  0  0  0  0
   26.8189   13.6524   20.7124 H   0  0  0  0  0  0  0  0  0  0  0  0
   26.6210   14.8030   17.9890 H   0  0  0  0  0  0  0  0  0  0  0  0
   28.9657   17.2519   20.0975 H   0  0  0  0  0  0  0  0  0  0  0  0
   30.8662   18.1514   18.7332 H   0  0  0  0  0  0  0  0  0  0  0  0
   28.4652   17.7224   15.2219 H   0  0  0  0  0  0  0  0  0  0  0  0
   23.5248   14.8948   18.2438 H   0  0  0  0  0  0  0  0  0  0  0  0
   22.0360   13.3605   19.5247 H   0  0  0  0  0  0  0  0  0  0  0  0
   23.6951   11.6633   23.4438 H   0  0  0  0  0  0  0  0  0  0  0  0
   25.2063   11.2610   24.3459 H   0  0  0  0  0  0  0  0  0  0  0  0
  1  2  1  0
  2  3  1  0
  3  4  1  0
  3  5  2  0
  5  6  1  0
  6  7  1  6
  6  8  1  0
  8  9  2  0
  9 10  1  0
 10 11  1  0
 11 12  1  0
 12 13  2  0
 12 14  1  0
 14 15  2  0
 15 16  1  0
 16 17  2  0
 17 18  1  0
 17 19  1  0
 19 20  2  0
 10 21  2  0
 21 22  1  0
 22 23  2  0
 23 24  1  0
  6 25  1  0
 25 26  1  0
 26 27  2  0
 26 28  2  0
 26  2  1  0
 23  8  1  0
 20 14  1  0
  1 29  1  0
  1 30  1  0
  1 31  1  0
  4 32  1  0
  4 33  1  0
  7 34  1  0
  7 35  1  0
  7 36  1  0
  9 37  1  0
 11 38  1  0
 15 39  1  0
 16 40  1  0
 19 41  1  0
 21 42  1  0
 22 43  1  0
 25 44  1  0
 25 45  1  0
M  END
>  <meeko>  (12)
{"is_sidechain": false}

>  <source_group>  (12)
BACE1-476

>  <source_system>  (12)
BACE1_verubecestat

>  <source_run>  (12)
alternate_476_seed4409_ex32

>  <source_seed>  (12)
4409

>  <vina_pose_rank>  (12)
12

>  <vina_affinity_kcal_mol>  (12)
-7.5030000000000001

>  <vina_rmsd_to_crystal_angstrom>  (12)
6.4383999999999997

$$$$
BACE1_verubecestat__alternate_476_seed4409_ex32__pose13
     RDKit          3D

 45 47  0  0  0  0  0  0  0  0999 V2000
   28.6360   13.5630   25.1000 C   0  0  0  0  0  0  0  0  0  0  0  0
   28.3560   14.2560   23.8270 N   0  0  0  0  0  0  0  0  0  0  0  0
   27.7080   15.5090   23.7580 C   0  0  0  0  0  0  0  0  0  0  0  0
   27.5000   16.0940   24.9790 N   0  0  0  0  0  0  0  0  0  0  0  0
   27.3570   16.0800   22.6480 N   0  0  0  0  0  0  0  0  0  0  0  0
   27.4980   15.4050   21.3590 C   0  0  2  0  0  0  0  0  0  0  0  0
   27.4300   16.5610   20.3570 C   0  0  0  0  0  0  0  0  0  0  0  0
   26.3460   14.4500   21.0850 C   0  0  0  0  0  0  0  0  0  0  0  0
   25.5770   13.9330   22.1270 C   0  0  0  0  0  0  0  0  0  0  0  0
   24.5310   13.0650   21.9090 C   0  0  0  0  0  0  0  0  0  0  0  0
   23.8370   12.6220   23.0420 N   0  0  0  0  0  0  0  0  0  0  0  0
   22.7540   13.2110   23.6700 C   0  0  0  0  0  0  0  0  0  0  0  0
   22.2980   14.3140   23.3980 O   0  0  0  0  0  0  0  0  0  0  0  0
   22.1080   12.3890   24.7220 C   0  0  0  0  0  0  0  0  0  0  0  0
   22.2230   11.0100   24.6900 C   0  0  0  0  0  0  0  0  0  0  0  0
   21.5990   10.2930   25.6950 C   0  0  0  0  0  0  0  0  0  0  0  0
   20.8970   10.9590   26.6810 C   0  0  0  0  0  0  0  0  0  0  0  0
   20.2670   10.3050   27.6720 F   0  0  0  0  0  0  0  0  0  0  0  0
   20.8340   12.3330   26.6240 C   0  0  0  0  0  0  0  0  0  0  0  0
   21.4250   13.0560   25.6580 N   0  0  0  0  0  0  0  0  0  0  0  0
   24.1880   12.6880   20.6170 C   0  0  0  0  0  0  0  0  0  0  0  0
   24.9420   13.1890   19.5710 C   0  0  0  0  0  0  0  0  0  0  0  0
   26.0090   14.0330   19.8070 C   0  0  0  0  0  0  0  0  0  0  0  0
   26.7520   14.4880   18.7650 F   0  0  0  0  0  0  0  0  0  0  0  0
   28.8770   14.7960   21.2400 C   0  0  0  0  0  0  0  0  0  0  0  0
   29.1100   13.5280   22.4610 S   0  0  0  0  0  0  0  0  0  0  0  0
   30.5350   13.4740   22.7340 O   0  0  0  0  0  0  0  0  0  0  0  0
   28.2990   12.3820   22.1920 O   0  0  0  0  0  0  0  0  0  0  0  0
   28.3705   14.2201   25.9413 H   0  0  0  0  0  0  0  0  0  0  0  0
   28.0403   12.6398   25.1536 H   0  0  0  0  0  0  0  0  0  0  0  0
   29.7058   13.3127   25.1536 H   0  0  0  0  0  0  0  0  0  0  0  0
   27.0540   16.9700   25.0350 H   0  0  0  0  0  0  0  0  0  0  0  0
   27.7960   15.6390   25.8000 H   0  0  0  0  0  0  0  0  0  0  0  0
   27.3739   17.5152   20.9013 H   0  0  0  0  0  0  0  0  0  0  0  0
   28.3302   16.5518   19.7249 H   0  0  0  0  0  0  0  0  0  0  0  0
   26.5370   16.4463   19.7249 H   0  0  0  0  0  0  0  0  0  0  0  0
   25.8145   14.2291   23.1594 H   0  0  0  0  0  0  0  0  0  0  0  0
   24.1620   11.7830   23.4430 H   0  0  0  0  0  0  0  0  0  0  0  0
   22.7895   10.5031   23.8950 H   0  0  0  0  0  0  0  0  0  0  0  0
   21.6616    9.1949   25.7091 H   0  0  0  0  0  0  0  0  0  0  0  0
   20.2729   12.8644   27.4068 H   0  0  0  0  0  0  0  0  0  0  0  0
   23.3414   12.0107   20.4309 H   0  0  0  0  0  0  0  0  0  0  0  0
   24.6881   12.9113   18.5374 H   0  0  0  0  0  0  0  0  0  0  0  0
   28.9931   14.3580   20.2377 H   0  0  0  0  0  0  0  0  0  0  0  0
   29.6271   15.5843   21.4009 H   0  0  0  0  0  0  0  0  0  0  0  0
  1  2  1  0
  2  3  1  0
  3  4  1  0
  3  5  2  0
  5  6  1  0
  6  7  1  6
  6  8  1  0
  8  9  2  0
  9 10  1  0
 10 11  1  0
 11 12  1  0
 12 13  2  0
 12 14  1  0
 14 15  2  0
 15 16  1  0
 16 17  2  0
 17 18  1  0
 17 19  1  0
 19 20  2  0
 10 21  2  0
 21 22  1  0
 22 23  2  0
 23 24  1  0
  6 25  1  0
 25 26  1  0
 26 27  2  0
 26 28  2  0
 26  2  1  0
 23  8  1  0
 20 14  1  0
  1 29  1  0
  1 30  1  0
  1 31  1  0
  4 32  1  0
  4 33  1  0
  7 34  1  0
  7 35  1  0
  7 36  1  0
  9 37  1  0
 11 38  1  0
 15 39  1  0
 16 40  1  0
 19 41  1  0
 21 42  1  0
 22 43  1  0
 25 44  1  0
 25 45  1  0
M  END
>  <meeko>  (13)
{"is_sidechain": false}

>  <source_group>  (13)
BACE1-476

>  <source_system>  (13)
BACE1_verubecestat

>  <source_run>  (13)
alternate_476_seed4409_ex32

>  <source_seed>  (13)
4409

>  <vina_pose_rank>  (13)
13

>  <vina_affinity_kcal_mol>  (13)
-7.2679999999999998

>  <vina_rmsd_to_crystal_angstrom>  (13)
7.6932999999999998

$$$$
BACE1_verubecestat__alternate_476_seed4409_ex32__pose14
     RDKit          3D

 45 47  0  0  0  0  0  0  0  0999 V2000
   28.8260   10.1430   21.6820 C   0  0  0  0  0  0  0  0  0  0  0  0
   28.3370   11.5340   21.6100 N   0  0  0  0  0  0  0  0  0  0  0  0
   29.1820   12.6560   21.7650 C   0  0  0  0  0  0  0  0  0  0  0  0
   30.5130   12.3430   21.8360 N   0  0  0  0  0  0  0  0  0  0  0  0
   28.7550   13.8800   21.8130 N   0  0  0  0  0  0  0  0  0  0  0  0
   27.3270   14.1950   21.8320 C   0  0  2  0  0  0  0  0  0  0  0  0
   27.2960   15.6680   21.4150 C   0  0  0  0  0  0  0  0  0  0  0  0
   26.7320   14.0660   23.2250 C   0  0  0  0  0  0  0  0  0  0  0  0
   25.4050   13.6800   23.4080 C   0  0  0  0  0  0  0  0  0  0  0  0
   24.8400   13.5580   24.6570 C   0  0  0  0  0  0  0  0  0  0  0  0
   23.4970   13.1610   24.7020 N   0  0  0  0  0  0  0  0  0  0  0  0
   22.9770   11.9400   25.0960 C   0  0  0  0  0  0  0  0  0  0  0  0
   23.6380   10.9430   25.3540 O   0  0  0  0  0  0  0  0  0  0  0  0
   21.5010   11.8960   25.2350 C   0  0  0  0  0  0  0  0  0  0  0  0
   20.8620   10.6850   25.4340 C   0  0  0  0  0  0  0  0  0  0  0  0
   19.4830   10.7020   25.5550 C   0  0  0  0  0  0  0  0  0  0  0  0
   18.8010   11.9000   25.4800 C   0  0  0  0  0  0  0  0  0  0  0  0
   17.4620   11.9650   25.5820 F   0  0  0  0  0  0  0  0  0  0  0  0
   19.5250   13.0530   25.2740 C   0  0  0  0  0  0  0  0  0  0  0  0
   20.8620   13.0670   25.1470 N   0  0  0  0  0  0  0  0  0  0  0  0
   25.5950   13.7980   25.7980 C   0  0  0  0  0  0  0  0  0  0  0  0
   26.9140   14.1850   25.6350 C   0  0  0  0  0  0  0  0  0  0  0  0
   27.4590   14.3350   24.3750 C   0  0  0  0  0  0  0  0  0  0  0  0
   28.7460   14.7440   24.2420 F   0  0  0  0  0  0  0  0  0  0  0  0
   26.6090   13.4140   20.7530 C   0  0  0  0  0  0  0  0  0  0  0  0
   26.7080   11.6710   21.0700 S   0  0  0  0  0  0  0  0  0  0  0  0
   26.6260   11.0100   19.7800 O   0  0  0  0  0  0  0  0  0  0  0  0
   25.9360   11.2980   22.2140 O   0  0  0  0  0  0  0  0  0  0  0  0
   28.9307    9.8452   22.7357 H   0  0  0  0  0  0  0  0  0  0  0  0
   28.1085    9.4758   21.1820 H   0  0  0  0  0  0  0  0  0  0  0  0
   29.8032   10.0715   21.1820 H   0  0  0  0  0  0  0  0  0  0  0  0
   31.1810   13.0580   21.9450 H   0  0  0  0  0  0  0  0  0  0  0  0
   30.8020   11.4040   21.7790 H   0  0  0  0  0  0  0  0  0  0  0  0
   27.2826   16.3031   22.3130 H   0  0  0  0  0  0  0  0  0  0  0  0
   28.1895   15.8984   20.8162 H   0  0  0  0  0  0  0  0  0  0  0  0
   26.3936   15.8606   20.8162 H   0  0  0  0  0  0  0  0  0  0  0  0
   24.7879   13.4654   22.5231 H   0  0  0  0  0  0  0  0  0  0  0  0
   22.8400   13.8360   24.4180 H   0  0  0  0  0  0  0  0  0  0  0  0
   21.4285    9.7440   25.4938 H   0  0  0  0  0  0  0  0  0  0  0  0
   18.9318    9.7629   25.7106 H   0  0  0  0  0  0  0  0  0  0  0  0
   18.9827   14.0079   25.2104 H   0  0  0  0  0  0  0  0  0  0  0  0
   25.1579   13.6839   26.8009 H   0  0  0  0  0  0  0  0  0  0  0  0
   27.5367   14.3757   26.5215 H   0  0  0  0  0  0  0  0  0  0  0  0
   25.5519   13.7175   20.7302 H   0  0  0  0  0  0  0  0  0  0  0  0
   27.0875   13.6254   19.7853 H   0  0  0  0  0  0  0  0  0  0  0  0
  1  2  1  0
  2  3  1  0
  3  4  1  0
  3  5  2  0
  5  6  1  0
  6  7  1  6
  6  8  1  0
  8  9  2  0
  9 10  1  0
 10 11  1  0
 11 12  1  0
 12 13  2  0
 12 14  1  0
 14 15  2  0
 15 16  1  0
 16 17  2  0
 17 18  1  0
 17 19  1  0
 19 20  2  0
 10 21  2  0
 21 22  1  0
 22 23  2  0
 23 24  1  0
  6 25  1  0
 25 26  1  0
 26 27  2  0
 26 28  2  0
 26  2  1  0
 23  8  1  0
 20 14  1  0
  1 29  1  0
  1 30  1  0
  1 31  1  0
  4 32  1  0
  4 33  1  0
  7 34  1  0
  7 35  1  0
  7 36  1  0
  9 37  1  0
 11 38  1  0
 15 39  1  0
 16 40  1  0
 19 41  1  0
 21 42  1  0
 22 43  1  0
 25 44  1  0
 25 45  1  0
M  END
>  <meeko>  (14)
{"is_sidechain": false}

>  <source_group>  (14)
BACE1-476

>  <source_system>  (14)
BACE1_verubecestat

>  <source_run>  (14)
alternate_476_seed4409_ex32

>  <source_seed>  (14)
4409

>  <vina_pose_rank>  (14)
14

>  <vina_affinity_kcal_mol>  (14)
-7.2530000000000001

>  <vina_rmsd_to_crystal_angstrom>  (14)
8.3658000000000001

$$$$
BACE1_verubecestat__alternate_476_seed4409_ex32__pose15
     RDKit          3D

 45 47  0  0  0  0  0  0  0  0999 V2000
   29.7160   17.2150   25.2940 C   0  0  0  0  0  0  0  0  0  0  0  0
   29.5210   15.9430   24.5710 N   0  0  0  0  0  0  0  0  0  0  0  0
   30.1330   15.6620   23.3290 C   0  0  0  0  0  0  0  0  0  0  0  0
   31.0400   16.6070   22.9300 N   0  0  0  0  0  0  0  0  0  0  0  0
   29.8890   14.5970   22.6290 N   0  0  0  0  0  0  0  0  0  0  0  0
   28.8520   13.6440   23.0170 C   0  0  2  0  0  0  0  0  0  0  0  0
   29.2320   12.3850   22.2320 C   0  0  0  0  0  0  0  0  0  0  0  0
   27.4680   14.0960   22.5790 C   0  0  0  0  0  0  0  0  0  0  0  0
   26.3250   13.6800   23.2610 C   0  0  0  0  0  0  0  0  0  0  0  0
   25.0600   14.0720   22.8860 C   0  0  0  0  0  0  0  0  0  0  0  0
   23.9970   13.5850   23.6570 N   0  0  0  0  0  0  0  0  0  0  0  0
   23.1180   12.5600   23.3550 C   0  0  0  0  0  0  0  0  0  0  0  0
   23.0510   11.9840   22.2770 O   0  0  0  0  0  0  0  0  0  0  0  0
   22.2320   12.1370   24.4670 C   0  0  0  0  0  0  0  0  0  0  0  0
   22.3660   10.8730   25.0150 C   0  0  0  0  0  0  0  0  0  0  0  0
   21.5130   10.5300   26.0490 C   0  0  0  0  0  0  0  0  0  0  0  0
   20.5750   11.4400   26.4960 C   0  0  0  0  0  0  0  0  0  0  0  0
   19.7180   11.1490   27.4910 F   0  0  0  0  0  0  0  0  0  0  0  0
   20.5140   12.6710   25.8840 C   0  0  0  0  0  0  0  0  0  0  0  0
   21.3250   13.0300   24.8750 N   0  0  0  0  0  0  0  0  0  0  0  0
   24.8800   14.9290   21.8070 C   0  0  0  0  0  0  0  0  0  0  0  0
   26.0030   15.3490   21.1160 C   0  0  0  0  0  0  0  0  0  0  0  0
   27.2640   14.9230   21.4850 C   0  0  0  0  0  0  0  0  0  0  0  0
   28.3470   15.3260   20.7720 F   0  0  0  0  0  0  0  0  0  0  0  0
   28.9810   13.3050   24.4860 C   0  0  0  0  0  0  0  0  0  0  0  0
   28.6950   14.7420   25.4880 S   0  0  0  0  0  0  0  0  0  0  0  0
   29.4450   14.5470   26.7150 O   0  0  0  0  0  0  0  0  0  0  0  0
   27.3270   15.1560   25.4390 O   0  0  0  0  0  0  0  0  0  0  0  0
   29.6875   17.0289   26.3778 H   0  0  0  0  0  0  0  0  0  0  0  0
   30.6907   17.6459   25.0215 H   0  0  0  0  0  0  0  0  0  0  0  0
   28.9152   17.9181   25.0215 H   0  0  0  0  0  0  0  0  0  0  0  0
   31.5190   16.5000   22.0770 H   0  0  0  0  0  0  0  0  0  0  0  0
   31.2130   17.3940   23.4970 H   0  0  0  0  0  0  0  0  0  0  0  0
   29.4766   11.5747   22.9346 H   0  0  0  0  0  0  0  0  0  0  0  0
   28.3863   12.0785   21.5988 H   0  0  0  0  0  0  0  0  0  0  0  0
   30.1060   12.5975   21.5988 H   0  0  0  0  0  0  0  0  0  0  0  0
   26.4384   13.0148   24.1297 H   0  0  0  0  0  0  0  0  0  0  0  0
   23.8580   14.0280   24.5250 H   0  0  0  0  0  0  0  0  0  0  0  0
   23.1228   10.1671   24.6422 H   0  0  0  0  0  0  0  0  0  0  0  0
   21.5817    9.5354   26.5138 H   0  0  0  0  0  0  0  0  0  0  0  0
   19.7657   13.3954   26.2378 H   0  0  0  0  0  0  0  0  0  0  0  0
   23.8748   15.2636   21.5110 H   0  0  0  0  0  0  0  0  0  0  0  0
   25.8898   16.0317   20.2609 H   0  0  0  0  0  0  0  0  0  0  0  0
   28.2427   12.5316   24.7445 H   0  0  0  0  0  0  0  0  0  0  0  0
   30.0003   12.9378   24.6764 H   0  0  0  0  0  0  0  0  0  0  0  0
  1  2  1  0
  2  3  1  0
  3  4  1  0
  3  5  2  0
  5  6  1  0
  6  7  1  6
  6  8  1  0
  8  9  2  0
  9 10  1  0
 10 11  1  0
 11 12  1  0
 12 13  2  0
 12 14  1  0
 14 15  2  0
 15 16  1  0
 16 17  2  0
 17 18  1  0
 17 19  1  0
 19 20  2  0
 10 21  2  0
 21 22  1  0
 22 23  2  0
 23 24  1  0
  6 25  1  0
 25 26  1  0
 26 27  2  0
 26 28  2  0
 26  2  1  0
 23  8  1  0
 20 14  1  0
  1 29  1  0
  1 30  1  0
  1 31  1  0
  4 32  1  0
  4 33  1  0
  7 34  1  0
  7 35  1  0
  7 36  1  0
  9 37  1  0
 11 38  1  0
 15 39  1  0
 16 40  1  0
 19 41  1  0
 21 42  1  0
 22 43  1  0
 25 44  1  0
 25 45  1  0
M  END
>  <meeko>  (15)
{"is_sidechain": false}

>  <source_group>  (15)
BACE1-476

>  <source_system>  (15)
BACE1_verubecestat

>  <source_run>  (15)
alternate_476_seed4409_ex32

>  <source_seed>  (15)
4409

>  <vina_pose_rank>  (15)
15

>  <vina_affinity_kcal_mol>  (15)
-7.2130000000000001

>  <vina_rmsd_to_crystal_angstrom>  (15)
8.2797000000000001

$$$$
BACE1_verubecestat__alternate_476_seed4409_ex32__pose16
     RDKit          3D

 45 47  0  0  0  0  0  0  0  0999 V2000
   15.2590   15.0670   27.7970 C   0  0  0  0  0  0  0  0  0  0  0  0
   15.8040   13.9310   27.0270 N   0  0  0  0  0  0  0  0  0  0  0  0
   15.5780   12.5820   27.3790 C   0  0  0  0  0  0  0  0  0  0  0  0
   14.6860   12.4180   28.4050 N   0  0  0  0  0  0  0  0  0  0  0  0
   16.1370   11.5760   26.7800 N   0  0  0  0  0  0  0  0  0  0  0  0
   17.1580   11.7660   25.7510 C   0  0  2  0  0  0  0  0  0  0  0  0
   17.1680   10.4180   25.0250 C   0  0  0  0  0  0  0  0  0  0  0  0
   18.5340   12.0120   26.3500 C   0  0  0  0  0  0  0  0  0  0  0  0
   19.5960   12.4470   25.5600 C   0  0  0  0  0  0  0  0  0  0  0  0
   20.8520   12.6750   26.0750 C   0  0  0  0  0  0  0  0  0  0  0  0
   21.8310   13.1130   25.1730 N   0  0  0  0  0  0  0  0  0  0  0  0
   22.5580   12.3630   24.2660 C   0  0  0  0  0  0  0  0  0  0  0  0
   22.5500   11.1410   24.1960 O   0  0  0  0  0  0  0  0  0  0  0  0
   23.3680   13.1470   23.3020 C   0  0  0  0  0  0  0  0  0  0  0  0
   23.4070   12.7740   21.9690 C   0  0  0  0  0  0  0  0  0  0  0  0
   24.1800   13.5390   21.1140 C   0  0  0  0  0  0  0  0  0  0  0  0
   24.8720   14.6310   21.6030 C   0  0  0  0  0  0  0  0  0  0  0  0
   25.6420   15.3970   20.8120 F   0  0  0  0  0  0  0  0  0  0  0  0
   24.7740   14.9180   22.9450 C   0  0  0  0  0  0  0  0  0  0  0  0
   24.0370   14.1910   23.8000 N   0  0  0  0  0  0  0  0  0  0  0  0
   21.1000   12.4950   27.4300 C   0  0  0  0  0  0  0  0  0  0  0  0
   20.0580   12.0590   28.2290 C   0  0  0  0  0  0  0  0  0  0  0  0
   18.8110   11.8040   27.6930 C   0  0  0  0  0  0  0  0  0  0  0  0
   17.8130   11.3500   28.4940 F   0  0  0  0  0  0  0  0  0  0  0  0
   16.7000   12.8040   24.7500 C   0  0  0  0  0  0  0  0  0  0  0  0
   16.5200   14.3890   25.5290 S   0  0  0  0  0  0  0  0  0  0  0  0
   15.5110   15.1090   24.7730 O   0  0  0  0  0  0  0  0  0  0  0  0
   17.7840   14.9380   25.9080 O   0  0  0  0  0  0  0  0  0  0  0  0
   15.3576   14.8615   28.8731 H   0  0  0  0  0  0  0  0  0  0  0  0
   15.8165   15.9814   27.5457 H   0  0  0  0  0  0  0  0  0  0  0  0
   14.1969   15.2044   27.5457 H   0  0  0  0  0  0  0  0  0  0  0  0
   14.4630   11.5130   28.7230 H   0  0  0  0  0  0  0  0  0  0  0  0
   14.2680   13.2040   28.8250 H   0  0  0  0  0  0  0  0  0  0  0  0
   17.1740    9.6034   25.7642 H   0  0  0  0  0  0  0  0  0  0  0  0
   16.2704   10.3344   24.3946 H   0  0  0  0  0  0  0  0  0  0  0  0
   18.0667   10.3477   24.3946 H   0  0  0  0  0  0  0  0  0  0  0  0
   19.4246   12.6142   24.4864 H   0  0  0  0  0  0  0  0  0  0  0  0
   22.0250   14.0780   25.1860 H   0  0  0  0  0  0  0  0  0  0  0  0
   22.8445   11.9022   21.6037 H   0  0  0  0  0  0  0  0  0  0  0  0
   24.2438   13.2788   20.0471 H   0  0  0  0  0  0  0  0  0  0  0  0
   25.3262   15.7851   23.3364 H   0  0  0  0  0  0  0  0  0  0  0  0
   22.0951   12.6932   27.8550 H   0  0  0  0  0  0  0  0  0  0  0  0
   20.2252   11.9134   29.3064 H   0  0  0  0  0  0  0  0  0  0  0  0
   17.4436   12.8805   23.9430 H   0  0  0  0  0  0  0  0  0  0  0  0
   15.7254   12.4971   24.3425 H   0  0  0  0  0  0  0  0  0  0  0  0
  1  2  1  0
  2  3  1  0
  3  4  1  0
  3  5  2  0
  5  6  1  0
  6  7  1  6
  6  8  1  0
  8  9  2  0
  9 10  1  0
 10 11  1  0
 11 12  1  0
 12 13  2  0
 12 14  1  0
 14 15  2  0
 15 16  1  0
 16 17  2  0
 17 18  1  0
 17 19  1  0
 19 20  2  0
 10 21  2  0
 21 22  1  0
 22 23  2  0
 23 24  1  0
  6 25  1  0
 25 26  1  0
 26 27  2  0
 26 28  2  0
 26  2  1  0
 23  8  1  0
 20 14  1  0
  1 29  1  0
  1 30  1  0
  1 31  1  0
  4 32  1  0
  4 33  1  0
  7 34  1  0
  7 35  1  0
  7 36  1  0
  9 37  1  0
 11 38  1  0
 15 39  1  0
 16 40  1  0
 19 41  1  0
 21 42  1  0
 22 43  1  0
 25 44  1  0
 25 45  1  0
M  END
>  <meeko>  (16)
{"is_sidechain": false}

>  <source_group>  (16)
BACE1-476

>  <source_system>  (16)
BACE1_verubecestat

>  <source_run>  (16)
alternate_476_seed4409_ex32

>  <source_seed>  (16)
4409

>  <vina_pose_rank>  (16)
16

>  <vina_affinity_kcal_mol>  (16)
-7.0700000000000003

>  <vina_rmsd_to_crystal_angstrom>  (16)
7.6498999999999997

$$$$
BACE1_verubecestat__alternate_476_seed4409_ex32__pose17
     RDKit          3D

 45 47  0  0  0  0  0  0  0  0999 V2000
   25.4090   11.8870   18.9230 C   0  0  0  0  0  0  0  0  0  0  0  0
   24.7140   12.2160   20.1840 N   0  0  0  0  0  0  0  0  0  0  0  0
   23.9430   13.3870   20.3550 C   0  0  0  0  0  0  0  0  0  0  0  0
   23.7710   14.1120   19.2060 N   0  0  0  0  0  0  0  0  0  0  0  0
   23.4160   13.7450   21.4850 N   0  0  0  0  0  0  0  0  0  0  0  0
   23.6840   13.0160   22.7230 C   0  0  2  0  0  0  0  0  0  0  0  0
   22.5410   13.4620   23.6390 C   0  0  0  0  0  0  0  0  0  0  0  0
   25.0070   13.4260   23.3530 C   0  0  0  0  0  0  0  0  0  0  0  0
   25.9270   14.2030   22.6520 C   0  0  0  0  0  0  0  0  0  0  0  0
   27.1320   14.5870   23.1950 C   0  0  0  0  0  0  0  0  0  0  0  0
   27.9650   15.3700   22.3850 N   0  0  0  0  0  0  0  0  0  0  0  0
   29.3330   15.2610   22.2040 C   0  0  0  0  0  0  0  0  0  0  0  0
   30.0710   14.5210   22.8410 O   0  0  0  0  0  0  0  0  0  0  0  0
   29.8960   16.1010   21.1190 C   0  0  0  0  0  0  0  0  0  0  0  0
   29.0510   16.8130   20.2870 C   0  0  0  0  0  0  0  0  0  0  0  0
   29.6310   17.5790   19.2900 C   0  0  0  0  0  0  0  0  0  0  0  0
   31.0060   17.6120   19.1600 C   0  0  0  0  0  0  0  0  0  0  0  0
   31.6130   18.3330   18.2020 F   0  0  0  0  0  0  0  0  0  0  0  0
   31.7630   16.8630   20.0330 C   0  0  0  0  0  0  0  0  0  0  0  0
   31.2290   16.1070   21.0060 N   0  0  0  0  0  0  0  0  0  0  0  0
   27.4660   14.2230   24.4940 C   0  0  0  0  0  0  0  0  0  0  0  0
   26.5660   13.4480   25.2030 C   0  0  0  0  0  0  0  0  0  0  0  0
   25.3740   13.0440   24.6340 C   0  0  0  0  0  0  0  0  0  0  0  0
   24.5210   12.2590   25.3410 F   0  0  0  0  0  0  0  0  0  0  0  0
   23.5170   11.5300   22.4970 C   0  0  0  0  0  0  0  0  0  0  0  0
   24.7160   10.9330   21.3320 S   0  0  0  0  0  0  0  0  0  0  0  0
   24.1250    9.7760   20.6850 O   0  0  0  0  0  0  0  0  0  0  0  0
   26.0380   10.9620   21.8750 O   0  0  0  0  0  0  0  0  0  0  0  0
   26.3819   11.4265   19.1499 H   0  0  0  0  0  0  0  0  0  0  0  0
   24.7971   11.1830   18.3400 H   0  0  0  0  0  0  0  0  0  0  0  0
   25.5657   12.8065   18.3400 H   0  0  0  0  0  0  0  0  0  0  0  0
   23.2480   14.9460   19.2240 H   0  0  0  0  0  0  0  0  0  0  0  0
   24.1710   13.8000   18.3620 H   0  0  0  0  0  0  0  0  0  0  0  0
   22.8453   13.3433   24.6894 H   0  0  0  0  0  0  0  0  0  0  0  0
   22.3048   14.5183   23.4428 H   0  0  0  0  0  0  0  0  0  0  0  0
   21.6518   12.8449   23.4428 H   0  0  0  0  0  0  0  0  0  0  0  0
   25.6814   14.5209   21.6280 H   0  0  0  0  0  0  0  0  0  0  0  0
   27.5210   16.0890   21.8810 H   0  0  0  0  0  0  0  0  0  0  0  0
   27.9590   16.7722   20.4127 H   0  0  0  0  0  0  0  0  0  0  0  0
   28.9983   18.1600   18.6029 H   0  0  0  0  0  0  0  0  0  0  0  0
   32.8578   16.8850   19.9283 H   0  0  0  0  0  0  0  0  0  0  0  0
   28.4175   14.5416   24.9448 H   0  0  0  0  0  0  0  0  0  0  0  0
   26.8030   13.1491   26.2348 H   0  0  0  0  0  0  0  0  0  0  0  0
   23.6489   11.0024   23.4532 H   0  0  0  0  0  0  0  0  0  0  0  0
   22.5103   11.3448   22.0942 H   0  0  0  0  0  0  0  0  0  0  0  0
  1  2  1  0
  2  3  1  0
  3  4  1  0
  3  5  2  0
  5  6  1  0
  6  7  1  1
  6  8  1  0
  8  9  2  0
  9 10  1  0
 10 11  1  0
 11 12  1  0
 12 13  2  0
 12 14  1  0
 14 15  2  0
 15 16  1  0
 16 17  2  0
 17 18  1  0
 17 19  1  0
 19 20  2  0
 10 21  2  0
 21 22  1  0
 22 23  2  0
 23 24  1  0
  6 25  1  0
 25 26  1  0
 26 27  2  0
 26 28  2  0
 26  2  1  0
 23  8  1  0
 20 14  1  0
  1 29  1  0
  1 30  1  0
  1 31  1  0
  4 32  1  0
  4 33  1  0
  7 34  1  0
  7 35  1  0
  7 36  1  0
  9 37  1  0
 11 38  1  0
 15 39  1  0
 16 40  1  0
 19 41  1  0
 21 42  1  0
 22 43  1  0
 25 44  1  0
 25 45  1  0
M  END
>  <meeko>  (17)
{"is_sidechain": false}

>  <source_group>  (17)
BACE1-476

>  <source_system>  (17)
BACE1_verubecestat

>  <source_run>  (17)
alternate_476_seed4409_ex32

>  <source_seed>  (17)
4409

>  <vina_pose_rank>  (17)
17

>  <vina_affinity_kcal_mol>  (17)
-7.0289999999999999

>  <vina_rmsd_to_crystal_angstrom>  (17)
6.4077000000000002

$$$$
BACE1_verubecestat__alternate_476_seed4409_ex32__pose18
     RDKit          3D

 45 47  0  0  0  0  0  0  0  0999 V2000
   24.8190   11.6350   19.2230 C   0  0  0  0  0  0  0  0  0  0  0  0
   24.7840   12.3230   20.5290 N   0  0  0  0  0  0  0  0  0  0  0  0
   24.0150   13.4840   20.7670 C   0  0  0  0  0  0  0  0  0  0  0  0
   23.1910   13.8270   19.7290 N   0  0  0  0  0  0  0  0  0  0  0  0
   24.0560   14.1630   21.8720 N   0  0  0  0  0  0  0  0  0  0  0  0
   25.0080   13.8440   22.9340 C   0  0  2  0  0  0  0  0  0  0  0  0
   24.4010   14.5350   24.1580 C   0  0  0  0  0  0  0  0  0  0  0  0
   26.3830   14.4370   22.6660 C   0  0  0  0  0  0  0  0  0  0  0  0
   26.6670   15.0800   21.4620 C   0  0  0  0  0  0  0  0  0  0  0  0
   27.9020   15.6240   21.1910 C   0  0  0  0  0  0  0  0  0  0  0  0
   28.0550   16.2440   19.9450 N   0  0  0  0  0  0  0  0  0  0  0  0
   28.5920   17.4880   19.6670 C   0  0  0  0  0  0  0  0  0  0  0  0
   28.9110   18.3210   20.5050 O   0  0  0  0  0  0  0  0  0  0  0  0
   28.8110   17.7770   18.2290 C   0  0  0  0  0  0  0  0  0  0  0  0
   30.0980   17.9360   17.7440 C   0  0  0  0  0  0  0  0  0  0  0  0
   30.2440   18.2050   16.3940 C   0  0  0  0  0  0  0  0  0  0  0  0
   29.1270   18.3020   15.5870 C   0  0  0  0  0  0  0  0  0  0  0  0
   29.2190   18.5720   14.2740 F   0  0  0  0  0  0  0  0  0  0  0  0
   27.8880   18.1340   16.1630 C   0  0  0  0  0  0  0  0  0  0  0  0
   27.7150   17.8780   17.4700 N   0  0  0  0  0  0  0  0  0  0  0  0
   28.9180   15.5670   22.1370 C   0  0  0  0  0  0  0  0  0  0  0  0
   28.6550   14.9300   23.3370 C   0  0  0  0  0  0  0  0  0  0  0  0
   27.4210   14.3610   23.5820 C   0  0  0  0  0  0  0  0  0  0  0  0
   27.1980   13.7150   24.7550 F   0  0  0  0  0  0  0  0  0  0  0  0
   24.9960   12.3570   23.2140 C   0  0  0  0  0  0  0  0  0  0  0  0
   25.5540   11.4480   21.7950 S   0  0  0  0  0  0  0  0  0  0  0  0
   24.9200   10.1430   21.8640 O   0  0  0  0  0  0  0  0  0  0  0  0
   26.9480   11.6510   21.5530 O   0  0  0  0  0  0  0  0  0  0  0  0
   24.8743   10.5480   19.3825 H   0  0  0  0  0  0  0  0  0  0  0  0
   23.9074   11.8766   18.6568 H   0  0  0  0  0  0  0  0  0  0  0  0
   25.7014   11.9678   18.6568 H   0  0  0  0  0  0  0  0  0  0  0  0
   22.6140   14.6220   19.8000 H   0  0  0  0  0  0  0  0  0  0  0  0
   23.1730   13.2770   18.9120 H   0  0  0  0  0  0  0  0  0  0  0  0
   24.8028   14.0776   25.0741 H   0  0  0  0  0  0  0  0  0  0  0  0
   24.6568   15.6047   24.1396 H   0  0  0  0  0  0  0  0  0  0  0  0
   23.3073   14.4192   24.1396 H   0  0  0  0  0  0  0  0  0  0  0  0
   25.8759   15.1553   20.7015 H   0  0  0  0  0  0  0  0  0  0  0  0
   27.7410   15.7280   19.1670 H   0  0  0  0  0  0  0  0  0  0  0  0
   30.9719   17.8517   18.4067 H   0  0  0  0  0  0  0  0  0  0  0  0
   31.2475   18.3413   15.9646 H   0  0  0  0  0  0  0  0  0  0  0  0
   26.9974   18.2132   15.5223 H   0  0  0  0  0  0  0  0  0  0  0  0
   29.9027   16.0151   21.9379 H   0  0  0  0  0  0  0  0  0  0  0  0
   29.4396   14.8762   24.1061 H   0  0  0  0  0  0  0  0  0  0  0  0
   25.6611   12.1440   24.0639 H   0  0  0  0  0  0  0  0  0  0  0  0
   23.9664   12.0493   23.4492 H   0  0  0  0  0  0  0  0  0  0  0  0
  1  2  1  0
  2  3  1  0
  3  4  1  0
  3  5  2  0
  5  6  1  0
  6  7  1  1
  6  8  1  0
  8  9  2  0
  9 10  1  0
 10 11  1  0
 11 12  1  0
 12 13  2  0
 12 14  1  0
 14 15  2  0
 15 16  1  0
 16 17  2  0
 17 18  1  0
 17 19  1  0
 19 20  2  0
 10 21  2  0
 21 22  1  0
 22 23  2  0
 23 24  1  0
  6 25  1  0
 25 26  1  0
 26 27  2  0
 26 28  2  0
 26  2  1  0
 23  8  1  0
 20 14  1  0
  1 29  1  0
  1 30  1  0
  1 31  1  0
  4 32  1  0
  4 33  1  0
  7 34  1  0
  7 35  1  0
  7 36  1  0
  9 37  1  0
 11 38  1  0
 15 39  1  0
 16 40  1  0
 19 41  1  0
 21 42  1  0
 22 43  1  0
 25 44  1  0
 25 45  1  0
M  END
>  <meeko>  (18)
{"is_sidechain": false}

>  <source_group>  (18)
BACE1-476

>  <source_system>  (18)
BACE1_verubecestat

>  <source_run>  (18)
alternate_476_seed4409_ex32

>  <source_seed>  (18)
4409

>  <vina_pose_rank>  (18)
18

>  <vina_affinity_kcal_mol>  (18)
-7.016

>  <vina_rmsd_to_crystal_angstrom>  (18)
7.6451000000000002

$$$$
BACE1_verubecestat__alternate_476_seed4409_ex32__pose19
     RDKit          3D

 45 47  0  0  0  0  0  0  0  0999 V2000
   27.1180   10.9620   19.8880 C   0  0  0  0  0  0  0  0  0  0  0  0
   25.9400   11.7370   20.3240 N   0  0  0  0  0  0  0  0  0  0  0  0
   25.7680   13.1080   20.0310 C   0  0  0  0  0  0  0  0  0  0  0  0
   26.7140   13.6170   19.1810 N   0  0  0  0  0  0  0  0  0  0  0  0
   24.7960   13.8300   20.4960 N   0  0  0  0  0  0  0  0  0  0  0  0
   23.8480   13.3010   21.4760 C   0  0  2  0  0  0  0  0  0  0  0  0
   22.6670   14.2690   21.3670 C   0  0  0  0  0  0  0  0  0  0  0  0
   24.4010   13.3580   22.8920 C   0  0  0  0  0  0  0  0  0  0  0  0
   25.6640   13.8880   23.1510 C   0  0  0  0  0  0  0  0  0  0  0  0
   26.1900   13.9500   24.4220 C   0  0  0  0  0  0  0  0  0  0  0  0
   27.4690   14.5090   24.5450 N   0  0  0  0  0  0  0  0  0  0  0  0
   28.6940   13.8730   24.4540 C   0  0  0  0  0  0  0  0  0  0  0  0
   28.8550   12.6620   24.3750 O   0  0  0  0  0  0  0  0  0  0  0  0
   29.8730   14.7720   24.4180 C   0  0  0  0  0  0  0  0  0  0  0  0
   30.3840   15.2890   25.5960 C   0  0  0  0  0  0  0  0  0  0  0  0
   31.4840   16.1240   25.5040 C   0  0  0  0  0  0  0  0  0  0  0  0
   32.0300   16.4080   24.2670 C   0  0  0  0  0  0  0  0  0  0  0  0
   33.0910   17.2210   24.1280 F   0  0  0  0  0  0  0  0  0  0  0  0
   31.4470   15.8510   23.1520 C   0  0  0  0  0  0  0  0  0  0  0  0
   30.3770   15.0420   23.2090 N   0  0  0  0  0  0  0  0  0  0  0  0
   25.4550   13.4970   25.5100 C   0  0  0  0  0  0  0  0  0  0  0  0
   24.2000   12.9650   25.2710 C   0  0  0  0  0  0  0  0  0  0  0  0
   23.6990   12.8800   23.9880 C   0  0  0  0  0  0  0  0  0  0  0  0
   22.4770   12.3260   23.7770 F   0  0  0  0  0  0  0  0  0  0  0  0
   23.3500   11.9420   21.0370 C   0  0  0  0  0  0  0  0  0  0  0  0
   24.6830   10.7700   20.9940 S   0  0  0  0  0  0  0  0  0  0  0  0
   24.3270    9.7760   19.9970 O   0  0  0  0  0  0  0  0  0  0  0  0
   25.1540   10.4590   22.3070 O   0  0  0  0  0  0  0  0  0  0  0  0
   27.6666   10.6011   20.7705 H   0  0  0  0  0  0  0  0  0  0  0  0
   26.7890   10.1033   19.2843 H   0  0  0  0  0  0  0  0  0  0  0  0
   27.7763   11.6040   19.2843 H   0  0  0  0  0  0  0  0  0  0  0  0
   26.6790   14.5650   18.9170 H   0  0  0  0  0  0  0  0  0  0  0  0
   27.4280   13.0350   18.8330 H   0  0  0  0  0  0  0  0  0  0  0  0
   22.3270   14.5477   22.3754 H   0  0  0  0  0  0  0  0  0  0  0  0
   22.9820   15.1721   20.8237 H   0  0  0  0  0  0  0  0  0  0  0  0
   21.8433   13.7828   20.8237 H   0  0  0  0  0  0  0  0  0  0  0  0
   26.2616   14.2702   22.3103 H   0  0  0  0  0  0  0  0  0  0  0  0
   27.4990   15.4770   24.7180 H   0  0  0  0  0  0  0  0  0  0  0  0
   29.9326   15.0453   26.5691 H   0  0  0  0  0  0  0  0  0  0  0  0
   31.9225   16.5605   26.4135 H   0  0  0  0  0  0  0  0  0  0  0  0
   31.8784   16.0796   22.1663 H   0  0  0  0  0  0  0  0  0  0  0  0
   25.8585   13.5593   26.5314 H   0  0  0  0  0  0  0  0  0  0  0  0
   23.5936   12.6050   26.1152 H   0  0  0  0  0  0  0  0  0  0  0  0
   22.5840   11.5921   21.7447 H   0  0  0  0  0  0  0  0  0  0  0  0
   22.9238   12.0305   20.0268 H   0  0  0  0  0  0  0  0  0  0  0  0
  1  2  1  0
  2  3  1  0
  3  4  1  0
  3  5  2  0
  5  6  1  0
  6  7  1  1
  6  8  1  0
  8  9  2  0
  9 10  1  0
 10 11  1  0
 11 12  1  0
 12 13  2  0
 12 14  1  0
 14 15  2  0
 15 16  1  0
 16 17  2  0
 17 18  1  0
 17 19  1  0
 19 20  2  0
 10 21  2  0
 21 22  1  0
 22 23  2  0
 23 24  1  0
  6 25  1  0
 25 26  1  0
 26 27  2  0
 26 28  2  0
 26  2  1  0
 23  8  1  0
 20 14  1  0
  1 29  1  0
  1 30  1  0
  1 31  1  0
  4 32  1  0
  4 33  1  0
  7 34  1  0
  7 35  1  0
  7 36  1  0
  9 37  1  0
 11 38  1  0
 15 39  1  0
 16 40  1  0
 19 41  1  0
 21 42  1  0
 22 43  1  0
 25 44  1  0
 25 45  1  0
M  END
>  <meeko>  (19)
{"is_sidechain": false}

>  <source_group>  (19)
BACE1-476

>  <source_system>  (19)
BACE1_verubecestat

>  <source_run>  (19)
alternate_476_seed4409_ex32

>  <source_seed>  (19)
4409

>  <vina_pose_rank>  (19)
19

>  <vina_affinity_kcal_mol>  (19)
-6.992

>  <vina_rmsd_to_crystal_angstrom>  (19)
5.9493999999999998

$$$$
BACE1_verubecestat__alternate_476_seed4409_ex32__pose20
     RDKit          3D

 45 47  0  0  0  0  0  0  0  0999 V2000
   27.3330   13.7630   25.2470 C   0  0  0  0  0  0  0  0  0  0  0  0
   27.0480   13.4210   23.8400 N   0  0  0  0  0  0  0  0  0  0  0  0
   27.9390   12.6810   23.0310 C   0  0  0  0  0  0  0  0  0  0  0  0
   29.0170   12.1790   23.7090 N   0  0  0  0  0  0  0  0  0  0  0  0
   27.7550   12.4650   21.7650 N   0  0  0  0  0  0  0  0  0  0  0  0
   26.6510   13.0840   21.0330 C   0  0  2  0  0  0  0  0  0  0  0  0
   26.5410   12.2140   19.7780 C   0  0  0  0  0  0  0  0  0  0  0  0
   26.9730   14.5100   20.6150 C   0  0  0  0  0  0  0  0  0  0  0  0
   28.1850   15.1060   20.9610 C   0  0  0  0  0  0  0  0  0  0  0  0
   28.5010   16.3960   20.5990 C   0  0  0  0  0  0  0  0  0  0  0  0
   29.7530   16.8740   21.0090 N   0  0  0  0  0  0  0  0  0  0  0  0
   30.1940   17.1280   22.2960 C   0  0  0  0  0  0  0  0  0  0  0  0
   29.4940   17.0930   23.3000 O   0  0  0  0  0  0  0  0  0  0  0  0
   31.6410   17.4260   22.4220 C   0  0  0  0  0  0  0  0  0  0  0  0
   32.2050   17.5940   23.6750 C   0  0  0  0  0  0  0  0  0  0  0  0
   33.5590   17.8730   23.7340 C   0  0  0  0  0  0  0  0  0  0  0  0
   34.2930   17.9690   22.5670 C   0  0  0  0  0  0  0  0  0  0  0  0
   35.6080   18.2470   22.5750 F   0  0  0  0  0  0  0  0  0  0  0  0
   33.6410   17.7910   21.3680 C   0  0  0  0  0  0  0  0  0  0  0  0
   32.3280   17.5250   21.2790 N   0  0  0  0  0  0  0  0  0  0  0  0
   27.6150   17.1510   19.8420 C   0  0  0  0  0  0  0  0  0  0  0  0
   26.4060   16.5770   19.4910 C   0  0  0  0  0  0  0  0  0  0  0  0
   26.0880   15.2940   19.8900 C   0  0  0  0  0  0  0  0  0  0  0  0
   24.8830   14.7640   19.5570 F   0  0  0  0  0  0  0  0  0  0  0  0
   25.3590   12.9180   21.8020 C   0  0  0  0  0  0  0  0  0  0  0  0
   25.4370   13.7810   23.3510 S   0  0  0  0  0  0  0  0  0  0  0  0
   24.5460   13.0820   24.2600 O   0  0  0  0  0  0  0  0  0  0  0  0
   25.4440   15.1990   23.1660 O   0  0  0  0  0  0  0  0  0  0  0  0
   26.7708   13.0884   25.9094 H   0  0  0  0  0  0  0  0  0  0  0  0
   28.4103   13.6528   25.4402 H   0  0  0  0  0  0  0  0  0  0  0  0
   27.0303   14.8028   25.4402 H   0  0  0  0  0  0  0  0  0  0  0  0
   29.6950   11.6480   23.2310 H   0  0  0  0  0  0  0  0  0  0  0  0
   29.1150   12.3480   24.6740 H   0  0  0  0  0  0  0  0  0  0  0  0
   26.4080   11.1622   20.0715 H   0  0  0  0  0  0  0  0  0  0  0  0
   25.6769   12.5400   19.1804 H   0  0  0  0  0  0  0  0  0  0  0  0
   27.4590   12.3147   19.1804 H   0  0  0  0  0  0  0  0  0  0  0  0
   28.9146   14.5248   21.5439 H   0  0  0  0  0  0  0  0  0  0  0  0
   30.4010   17.0510   20.2900 H   0  0  0  0  0  0  0  0  0  0  0  0
   31.5995   17.5089   24.5894 H   0  0  0  0  0  0  0  0  0  0  0  0
   34.0500   18.0181   24.7076 H   0  0  0  0  0  0  0  0  0  0  0  0
   34.2235   17.8705   20.4383 H   0  0  0  0  0  0  0  0  0  0  0  0
   27.8669   18.1754   19.5305 H   0  0  0  0  0  0  0  0  0  0  0  0
   25.6885   17.1506   18.8859 H   0  0  0  0  0  0  0  0  0  0  0  0
   24.5285   13.3223   21.2046 H   0  0  0  0  0  0  0  0  0  0  0  0
   25.2001   11.8478   22.0005 H   0  0  0  0  0  0  0  0  0  0  0  0
  1  2  1  0
  2  3  1  0
  3  4  1  0
  3  5  2  0
  5  6  1  0
  6  7  1  6
  6  8  1  0
  8  9  2  0
  9 10  1  0
 10 11  1  0
 11 12  1  0
 12 13  2  0
 12 14  1  0
 14 15  2  0
 15 16  1  0
 16 17  2  0
 17 18  1  0
 17 19  1  0
 19 20  2  0
 10 21  2  0
 21 22  1  0
 22 23  2  0
 23 24  1  0
  6 25  1  0
 25 26  1  0
 26 27  2  0
 26 28  2  0
 26  2  1  0
 23  8  1  0
 20 14  1  0
  1 29  1  0
  1 30  1  0
  1 31  1  0
  4 32  1  0
  4 33  1  0
  7 34  1  0
  7 35  1  0
  7 36  1  0
  9 37  1  0
 11 38  1  0
 15 39  1  0
 16 40  1  0
 19 41  1  0
 21 42  1  0
 22 43  1  0
 25 44  1  0
 25 45  1  0
M  END
>  <meeko>  (20)
{"is_sidechain": false}

>  <source_group>  (20)
BACE1-476

>  <source_system>  (20)
BACE1_verubecestat

>  <source_run>  (20)
alternate_476_seed4409_ex32

>  <source_seed>  (20)
4409

>  <vina_pose_rank>  (20)
20

>  <vina_affinity_kcal_mol>  (20)
-6.9850000000000003

>  <vina_rmsd_to_crystal_angstrom>  (20)
6.9589999999999996

$$$$
