BACE1_verubecestat__alternate_476_seed4409_ex32__pose01


 31 33  0  0  0  0  0  0  0  0999 V2000
   24.7300   12.4950   21.0300 C   0  0  0  0  0  0  0  0  0  0  0  0
   24.0310   12.2470   22.2110 C   0  0  0  0  0  0  0  0  0  0  0  0
   23.3950   11.0500   22.4530 C   0  0  0  0  0  0  0  0  0  0  0  0
   23.4120   10.0400   21.5000 C   0  0  0  0  0  0  0  0  0  0  0  0
   24.1050   10.2660   20.3230 C   0  0  0  0  0  0  0  0  0  0  0  0
   24.7650   11.4600   20.1080 C   0  0  0  0  0  0  0  0  0  0  0  0
   25.4620   11.6470   18.9580 F   0  0  0  0  0  0  0  0  0  0  0  0
   27.6300   13.7680   24.5120 C   0  0  0  0  0  0  0  0  0  0  0  0
   26.9510   13.8840   23.2060 N   0  0  0  0  0  0  0  0  0  0  0  0
   25.8510   14.7420   22.9840 C   0  0  0  0  0  0  0  0  0  0  0  0
   25.5670   15.5660   24.0390 N   0  0  0  0  0  0  0  0  0  0  0  0
   25.1750   14.7760   21.8770 N   0  0  0  0  0  0  0  0  0  0  0  0
   25.4250   13.8260   20.7940 C   0  0  0  0  0  0  0  0  0  0  0  0
   24.7850   14.5100   19.5830 C   0  0  0  0  0  0  0  0  0  0  0  0
   26.9090   13.7350   20.5170 C   0  0  0  0  0  0  0  0  0  0  0  0
   27.7700   13.0790   21.9240 S   0  0  0  0  0  0  0  0  0  0  0  0
   29.1180   13.6160   21.8720 O   0  0  0  0  0  0  0  0  0  0  0  0
   27.4630   11.6990   22.1350 O   0  0  0  0  0  0  0  0  0  0  0  0
   24.8170   16.2020   23.9800 H   0  0  0  0  0  0  0  0  0  0  0  0
   26.1130   15.5250   24.8570 H   0  0  0  0  0  0  0  0  0  0  0  0
   22.7260   10.9320   23.6770 N   0  0  0  0  0  0  0  0  0  0  0  0
   23.2170   11.1670   24.9490 C   0  0  0  0  0  0  0  0  0  0  0  0
   24.3880   11.4010   25.2200 O   0  0  0  0  0  0  0  0  0  0  0  0
   21.7850   10.6440   23.6260 H   0  0  0  0  0  0  0  0  0  0  0  0
   22.2030   11.1590   26.0310 C   0  0  0  0  0  0  0  0  0  0  0  0
   20.9050   10.7610   25.7600 C   0  0  0  0  0  0  0  0  0  0  0  0
   20.0000   10.7750   26.8060 C   0  0  0  0  0  0  0  0  0  0  0  0
   20.4090   11.1730   28.0640 C   0  0  0  0  0  0  0  0  0  0  0  0
   19.5630   11.2120   29.1080 F   0  0  0  0  0  0  0  0  0  0  0  0
   21.7190   11.5580   28.2340 C   0  0  0  0  0  0  0  0  0  0  0  0
   22.6190   11.5600   27.2370 N   0  0  0  0  0  0  0  0  0  0  0  0
  8  9  1  0
  9 10  1  0
 10 11  1  0
 10 12  2  0
 12 13  1  0
 13 14  1  0
 13  1  1  0
  1  2  2  0
  2  3  1  0
  3 21  1  0
 21 22  1  0
 22 23  2  0
 22 25  1  0
 25 26  2  0
 26 27  1  0
 27 28  2  0
 28 29  1  0
 28 30  1  0
 30 31  2  0
  3  4  2  0
  4  5  1  0
  5  6  2  0
  6  7  1  0
 13 15  1  0
 15 16  1  0
 16 17  2  0
 16 18  2  0
 16  9  1  0
  6  1  1  0
 31 25  1  0
 11 19  1  0
 11 20  1  0
 21 24  1  0
M  END
> <meeko>
{"is_sidechain": false}

> <source_group>
BACE1-476

> <source_system>
BACE1_verubecestat

> <source_run>
alternate_476_seed4409_ex32

> <source_seed>
4409

> <vina_pose_rank>
1

> <vina_affinity_kcal_mol>
-9.1739999999999995

> <vina_rmsd_to_crystal_angstrom>
7.1161000000000003

> <minimizedAffinity>
-9.17611

> <CNNscore>
0.1170730963

> <CNNaffinity>
5.7016701698

> <CNN_VS>
0.6675121784

> <CNNaffinity_variance>
0.5698144436

$$$$
BACE1_verubecestat__alternate_476_seed4409_ex32__pose02


 31 33  0  0  0  0  0  0  0  0999 V2000
   26.9060   13.0760   22.9310 C   0  0  0  0  0  0  0  0  0  0  0  0
   25.8320   12.7020   23.7370 C   0  0  0  0  0  0  0  0  0  0  0  0
   25.6500   13.2110   25.0030 C   0  0  0  0  0  0  0  0  0  0  0  0
   26.5610   14.1150   25.5360 C   0  0  0  0  0  0  0  0  0  0  0  0
   27.6310   14.5000   24.7480 C   0  0  0  0  0  0  0  0  0  0  0  0
   27.7830   14.0050   23.4680 C   0  0  0  0  0  0  0  0  0  0  0  0
   28.8260   14.4210   22.7040 F   0  0  0  0  0  0  0  0  0  0  0  0
   23.0780   13.4790   20.2230 C   0  0  0  0  0  0  0  0  0  0  0  0
   24.4720   13.1190   20.5500 N   0  0  0  0  0  0  0  0  0  0  0  0
   24.8780   11.7980   20.8390 C   0  0  0  0  0  0  0  0  0  0  0  0
   23.9010   10.8600   20.6400 N   0  0  0  0  0  0  0  0  0  0  0  0
   26.0720   11.4800   21.2340 N   0  0  0  0  0  0  0  0  0  0  0  0
   27.0780   12.4980   21.5350 C   0  0  0  0  0  0  0  0  0  0  0  0
   28.3900   11.7090   21.4850 C   0  0  0  0  0  0  0  0  0  0  0  0
   27.1320   13.5190   20.4200 C   0  0  0  0  0  0  0  0  0  0  0  0
   25.5950   14.3990   20.3010 S   0  0  0  0  0  0  0  0  0  0  0  0
   25.4660   14.8220   18.9180 O   0  0  0  0  0  0  0  0  0  0  0  0
   25.3910   15.2580   21.4260 O   0  0  0  0  0  0  0  0  0  0  0  0
   24.0880    9.9090   20.8140 H   0  0  0  0  0  0  0  0  0  0  0  0
   23.0110   11.1360   20.3220 H   0  0  0  0  0  0  0  0  0  0  0  0
   24.5310   12.7510   25.7100 N   0  0  0  0  0  0  0  0  0  0  0  0
   23.1990   12.8180   25.3440 C   0  0  0  0  0  0  0  0  0  0  0  0
   22.7650   13.4240   24.3720 O   0  0  0  0  0  0  0  0  0  0  0  0
   24.7170   12.3240   26.5770 H   0  0  0  0  0  0  0  0  0  0  0  0
   22.2650   12.0530   26.2060 C   0  0  0  0  0  0  0  0  0  0  0  0
   21.0840   11.5610   25.6790 C   0  0  0  0  0  0  0  0  0  0  0  0
   20.2500   10.8560   26.5290 C   0  0  0  0  0  0  0  0  0  0  0  0
   20.6130   10.6650   27.8480 C   0  0  0  0  0  0  0  0  0  0  0  0
   19.8320    9.9960   28.7120 F   0  0  0  0  0  0  0  0  0  0  0  0
   21.8060   11.1990   28.2800 C   0  0  0  0  0  0  0  0  0  0  0  0
   22.6340   11.8920   27.4810 N   0  0  0  0  0  0  0  0  0  0  0  0
  8  9  1  0
  9 10  1  0
 10 11  1  0
 10 12  2  0
 12 13  1  0
 13 14  1  0
 13  1  1  0
  1  2  2  0
  2  3  1  0
  3 21  1  0
 21 22  1  0
 22 23  2  0
 22 25  1  0
 25 26  2  0
 26 27  1  0
 27 28  2  0
 28 29  1  0
 28 30  1  0
 30 31  2  0
  3  4  2  0
  4  5  1  0
  5  6  2  0
  6  7  1  0
 13 15  1  0
 15 16  1  0
 16 17  2  0
 16 18  2  0
 16  9  1  0
  6  1  1  0
 31 25  1  0
 11 19  1  0
 11 20  1  0
 21 24  1  0
M  END
> <meeko>
{"is_sidechain": false}

> <source_group>
BACE1-476

> <source_system>
BACE1_verubecestat

> <source_run>
alternate_476_seed4409_ex32

> <source_seed>
4409

> <vina_pose_rank>
2

> <vina_affinity_kcal_mol>
-8.5429999999999993

> <vina_rmsd_to_crystal_angstrom>
7.5259

> <minimizedAffinity>
-8.54356

> <CNNscore>
0.0299630966

> <CNNaffinity>
4.2794337273

> <CNN_VS>
0.1282250881

> <CNNaffinity_variance>
1.8342677355

$$$$
BACE1_verubecestat__alternate_476_seed4409_ex32__pose03


 31 33  0  0  0  0  0  0  0  0999 V2000
   25.9010   13.0840   21.6850 C   0  0  0  0  0  0  0  0  0  0  0  0
   25.1030   12.8180   22.7970 C   0  0  0  0  0  0  0  0  0  0  0  0
   24.4160   11.6350   22.9450 C   0  0  0  0  0  0  0  0  0  0  0  0
   24.4810   10.6570   21.9600 C   0  0  0  0  0  0  0  0  0  0  0  0
   25.2720   10.9020   20.8510 C   0  0  0  0  0  0  0  0  0  0  0  0
   25.9800   12.0810   20.7320 C   0  0  0  0  0  0  0  0  0  0  0  0
   26.7720   12.2840   19.6470 F   0  0  0  0  0  0  0  0  0  0  0  0
   28.7450   14.0260   25.3160 C   0  0  0  0  0  0  0  0  0  0  0  0
   28.1070   14.2490   24.0030 N   0  0  0  0  0  0  0  0  0  0  0  0
   27.0460   15.1600   23.8070 C   0  0  0  0  0  0  0  0  0  0  0  0
   26.7620   15.9270   24.9050 N   0  0  0  0  0  0  0  0  0  0  0  0
   26.4030   15.2890   22.6870 N   0  0  0  0  0  0  0  0  0  0  0  0
   26.6500   14.4010   21.5530 C   0  0  0  0  0  0  0  0  0  0  0  0
   26.0690   15.1830   20.3720 C   0  0  0  0  0  0  0  0  0  0  0  0
   28.1370   14.2710   21.3090 C   0  0  0  0  0  0  0  0  0  0  0  0
   28.9340   13.4960   22.6940 S   0  0  0  0  0  0  0  0  0  0  0  0
   30.3010   13.9830   22.7110 O   0  0  0  0  0  0  0  0  0  0  0  0
   28.5710   12.1180   22.8070 O   0  0  0  0  0  0  0  0  0  0  0  0
   26.0380   16.5920   24.8670 H   0  0  0  0  0  0  0  0  0  0  0  0
   27.2830   15.8130   25.7330 H   0  0  0  0  0  0  0  0  0  0  0  0
   23.6480   11.4950   24.1080 N   0  0  0  0  0  0  0  0  0  0  0  0
   22.6300   12.3130   24.5650 C   0  0  0  0  0  0  0  0  0  0  0  0
   22.3160   13.3890   24.0740 O   0  0  0  0  0  0  0  0  0  0  0  0
   23.8600   10.7160   24.6710 H   0  0  0  0  0  0  0  0  0  0  0  0
   21.8640   11.7850   25.7200 C   0  0  0  0  0  0  0  0  0  0  0  0
   20.5960   11.2630   25.5290 C   0  0  0  0  0  0  0  0  0  0  0  0
   19.9270   10.7860   26.6430 C   0  0  0  0  0  0  0  0  0  0  0  0
   20.5310   10.8400   27.8840 C   0  0  0  0  0  0  0  0  0  0  0  0
   19.9160   10.3970   28.9940 F   0  0  0  0  0  0  0  0  0  0  0  0
   21.7930   11.3820   27.9740 C   0  0  0  0  0  0  0  0  0  0  0  0
   22.4650   11.8580   26.9130 N   0  0  0  0  0  0  0  0  0  0  0  0
  8  9  1  0
  9 10  1  0
 10 11  1  0
 10 12  2  0
 12 13  1  0
 13 14  1  0
 13  1  1  0
  1  2  2  0
  2  3  1  0
  3 21  1  0
 21 22  1  0
 22 23  2  0
 22 25  1  0
 25 26  2  0
 26 27  1  0
 27 28  2  0
 28 29  1  0
 28 30  1  0
 30 31  2  0
  3  4  2  0
  4  5  1  0
  5  6  2  0
  6  7  1  0
 13 15  1  0
 15 16  1  0
 16 17  2  0
 16 18  2  0
 16  9  1  0
  6  1  1  0
 31 25  1  0
 11 19  1  0
 11 20  1  0
 21 24  1  0
M  END
> <meeko>
{"is_sidechain": false}

> <source_group>
BACE1-476

> <source_system>
BACE1_verubecestat

> <source_run>
alternate_476_seed4409_ex32

> <source_seed>
4409

> <vina_pose_rank>
3

> <vina_affinity_kcal_mol>
-8.4199999999999999

> <vina_rmsd_to_crystal_angstrom>
7.6109

> <minimizedAffinity>
-8.51057

> <CNNscore>
0.0412669331

> <CNNaffinity>
5.6353955269

> <CNN_VS>
0.2325554937

> <CNNaffinity_variance>
0.2651343644

$$$$
BACE1_verubecestat__alternate_476_seed4409_ex32__pose04


 31 33  0  0  0  0  0  0  0  0999 V2000
   26.1170   12.4430   21.1530 C   0  0  0  0  0  0  0  0  0  0  0  0
   26.9780   13.3210   21.8100 C   0  0  0  0  0  0  0  0  0  0  0  0
   28.3180   13.0510   21.9780 C   0  0  0  0  0  0  0  0  0  0  0  0
   28.8600   11.8610   21.5080 C   0  0  0  0  0  0  0  0  0  0  0  0
   28.0210   10.9790   20.8510 C   0  0  0  0  0  0  0  0  0  0  0  0
   26.6860   11.2770   20.6620 C   0  0  0  0  0  0  0  0  0  0  0  0
   25.8900   10.4080   19.9880 F   0  0  0  0  0  0  0  0  0  0  0  0
   23.3320   10.4070   24.3550 C   0  0  0  0  0  0  0  0  0  0  0  0
   23.6640   11.2650   23.2000 N   0  0  0  0  0  0  0  0  0  0  0  0
   23.4420   10.8740   21.8610 C   0  0  0  0  0  0  0  0  0  0  0  0
   22.7530    9.6980   21.7330 N   0  0  0  0  0  0  0  0  0  0  0  0
   23.8260   11.5670   20.8340 N   0  0  0  0  0  0  0  0  0  0  0  0
   24.6420   12.7710   20.9810 C   0  0  0  0  0  0  0  0  0  0  0  0
   24.4480   13.4830   19.6400 C   0  0  0  0  0  0  0  0  0  0  0  0
   24.0560   13.6680   22.0480 C   0  0  0  0  0  0  0  0  0  0  0  0
   24.1060   12.8710   23.6340 S   0  0  0  0  0  0  0  0  0  0  0  0
   23.0100   13.4240   24.4090 O   0  0  0  0  0  0  0  0  0  0  0  0
   25.4450   12.7390   24.1160 O   0  0  0  0  0  0  0  0  0  0  0  0
   22.5490    9.3420   20.8380 H   0  0  0  0  0  0  0  0  0  0  0  0
   22.4610    9.2070   22.5350 H   0  0  0  0  0  0  0  0  0  0  0  0
   29.0720   14.0170   22.6570 N   0  0  0  0  0  0  0  0  0  0  0  0
   29.3300   14.1040   24.0140 C   0  0  0  0  0  0  0  0  0  0  0  0
   28.8180   13.4000   24.8750 O   0  0  0  0  0  0  0  0  0  0  0  0
   29.4690   14.7230   22.0980 H   0  0  0  0  0  0  0  0  0  0  0  0
   30.3370   15.1200   24.4030 C   0  0  0  0  0  0  0  0  0  0  0  0
   29.9510   16.2320   25.1310 C   0  0  0  0  0  0  0  0  0  0  0  0
   30.9320   17.1500   25.4650 C   0  0  0  0  0  0  0  0  0  0  0  0
   32.2390   16.9320   25.0740 C   0  0  0  0  0  0  0  0  0  0  0  0
   33.2230   17.7990   25.3680 F   0  0  0  0  0  0  0  0  0  0  0  0
   32.5240   15.7980   24.3480 C   0  0  0  0  0  0  0  0  0  0  0  0
   31.5930   14.8930   24.0040 N   0  0  0  0  0  0  0  0  0  0  0  0
  8  9  1  0
  9 10  1  0
 10 11  1  0
 10 12  2  0
 12 13  1  0
 13 14  1  0
 13  1  1  0
  1  2  2  0
  2  3  1  0
  3 21  1  0
 21 22  1  0
 22 23  2  0
 22 25  1  0
 25 26  2  0
 26 27  1  0
 27 28  2  0
 28 29  1  0
 28 30  1  0
 30 31  2  0
  3  4  2  0
  4  5  1  0
  5  6  2  0
  6  7  1  0
 13 15  1  0
 15 16  1  0
 16 17  2  0
 16 18  2  0
 16  9  1  0
  6  1  1  0
 31 25  1  0
 11 19  1  0
 11 20  1  0
 21 24  1  0
M  END
> <meeko>
{"is_sidechain": false}

> <source_group>
BACE1-476

> <source_system>
BACE1_verubecestat

> <source_run>
alternate_476_seed4409_ex32

> <source_seed>
4409

> <vina_pose_rank>
4

> <vina_affinity_kcal_mol>
-8.3369999999999997

> <vina_rmsd_to_crystal_angstrom>
5.2637

> <minimizedAffinity>
-8.81877

> <CNNscore>
0.2329507172

> <CNNaffinity>
5.8060226440

> <CNN_VS>
1.3525171280

> <CNNaffinity_variance>
0.1497280151

$$$$
BACE1_verubecestat__alternate_476_seed4409_ex32__pose05


 31 33  0  0  0  0  0  0  0  0999 V2000
   20.9880   12.1180   27.3450 C   0  0  0  0  0  0  0  0  0  0  0  0
   21.6130   12.0130   26.1040 C   0  0  0  0  0  0  0  0  0  0  0  0
   22.7630   12.7050   25.7970 C   0  0  0  0  0  0  0  0  0  0  0  0
   23.3350   13.5640   26.7270 C   0  0  0  0  0  0  0  0  0  0  0  0
   22.7310   13.6780   27.9660 C   0  0  0  0  0  0  0  0  0  0  0  0
   21.5950   12.9530   28.2710 C   0  0  0  0  0  0  0  0  0  0  0  0
   21.0380   13.0600   29.5040 F   0  0  0  0  0  0  0  0  0  0  0  0
   17.0280   14.5030   26.4630 C   0  0  0  0  0  0  0  0  0  0  0  0
   17.8470   13.3460   26.8720 N   0  0  0  0  0  0  0  0  0  0  0  0
   18.0570   12.9890   28.2220 C   0  0  0  0  0  0  0  0  0  0  0  0
   17.3110   13.7160   29.1110 N   0  0  0  0  0  0  0  0  0  0  0  0
   18.8590   12.0430   28.6030 N   0  0  0  0  0  0  0  0  0  0  0  0
   19.7200   11.3380   27.6540 C   0  0  0  0  0  0  0  0  0  0  0  0
   20.0960   10.0630   28.4150 C   0  0  0  0  0  0  0  0  0  0  0  0
   18.9190   10.9110   26.4440 C   0  0  0  0  0  0  0  0  0  0  0  0
   18.3120   12.3280   25.5630 S   0  0  0  0  0  0  0  0  0  0  0  0
   17.0940   11.9070   24.8930 O   0  0  0  0  0  0  0  0  0  0  0  0
   19.3710   13.0480   24.9290 O   0  0  0  0  0  0  0  0  0  0  0  0
   17.3870   13.5410   30.0770 H   0  0  0  0  0  0  0  0  0  0  0  0
   16.6990   14.4150   28.7840 H   0  0  0  0  0  0  0  0  0  0  0  0
   23.2880   12.5130   24.5130 N   0  0  0  0  0  0  0  0  0  0  0  0
   23.1550   13.3270   23.4020 C   0  0  0  0  0  0  0  0  0  0  0  0
   22.4300   14.3110   23.3320 O   0  0  0  0  0  0  0  0  0  0  0  0
   23.8190   11.6940   24.3840 H   0  0  0  0  0  0  0  0  0  0  0  0
   24.0050   12.9600   22.2430 C   0  0  0  0  0  0  0  0  0  0  0  0
   23.4460   12.8620   20.9800 C   0  0  0  0  0  0  0  0  0  0  0  0
   24.2840   12.5140   19.9350 C   0  0  0  0  0  0  0  0  0  0  0  0
   25.6240   12.2820   20.1760 C   0  0  0  0  0  0  0  0  0  0  0  0
   26.4740   11.9330   19.1950 F   0  0  0  0  0  0  0  0  0  0  0  0
   26.0850   12.3980   21.4680 C   0  0  0  0  0  0  0  0  0  0  0  0
   25.2960   12.7290   22.5030 N   0  0  0  0  0  0  0  0  0  0  0  0
  8  9  1  0
  9 10  1  0
 10 11  1  0
 10 12  2  0
 12 13  1  0
 13 14  1  0
 13  1  1  0
  1  2  2  0
  2  3  1  0
  3 21  1  0
 21 22  1  0
 22 23  2  0
 22 25  1  0
 25 26  2  0
 26 27  1  0
 27 28  2  0
 28 29  1  0
 28 30  1  0
 30 31  2  0
  3  4  2  0
  4  5  1  0
  5  6  2  0
  6  7  1  0
 13 15  1  0
 15 16  1  0
 16 17  2  0
 16 18  2  0
 16  9  1  0
  6  1  1  0
 31 25  1  0
 11 19  1  0
 11 20  1  0
 21 24  1  0
M  END
> <meeko>
{"is_sidechain": false}

> <source_group>
BACE1-476

> <source_system>
BACE1_verubecestat

> <source_run>
alternate_476_seed4409_ex32

> <source_seed>
4409

> <vina_pose_rank>
5

> <vina_affinity_kcal_mol>
-8.3209999999999997

> <vina_rmsd_to_crystal_angstrom>
6.8190999999999997

> <minimizedAffinity>
-8.84106

> <CNNscore>
0.2632554173

> <CNNaffinity>
5.7350697517

> <CNN_VS>
1.5097881556

> <CNNaffinity_variance>
0.1972284168

$$$$
BACE1_verubecestat__alternate_476_seed4409_ex32__pose06


 31 33  0  0  0  0  0  0  0  0999 V2000
   26.4680   13.5930   22.7000 C   0  0  0  0  0  0  0  0  0  0  0  0
   25.6240   13.0250   23.6520 C   0  0  0  0  0  0  0  0  0  0  0  0
   24.2610   13.2170   23.6360 C   0  0  0  0  0  0  0  0  0  0  0  0
   23.6750   14.0180   22.6630 C   0  0  0  0  0  0  0  0  0  0  0  0
   24.4980   14.5880   21.7080 C   0  0  0  0  0  0  0  0  0  0  0  0
   25.8600   14.3600   21.7180 C   0  0  0  0  0  0  0  0  0  0  0  0
   26.6410   14.9070   20.7520 F   0  0  0  0  0  0  0  0  0  0  0  0
   28.8560   16.9840   24.9260 C   0  0  0  0  0  0  0  0  0  0  0  0
   28.6710   15.7090   24.2040 N   0  0  0  0  0  0  0  0  0  0  0  0
   28.9730   15.5510   22.8330 C   0  0  0  0  0  0  0  0  0  0  0  0
   29.5920   16.6350   22.2710 N   0  0  0  0  0  0  0  0  0  0  0  0
   28.7160   14.4730   22.1580 N   0  0  0  0  0  0  0  0  0  0  0  0
   27.9710   13.3600   22.7430 C   0  0  0  0  0  0  0  0  0  0  0  0
   28.3160   12.1910   21.8150 C   0  0  0  0  0  0  0  0  0  0  0  0
   28.5280   13.0210   24.1080 C   0  0  0  0  0  0  0  0  0  0  0  0
   28.3020   14.3770   25.2300 S   0  0  0  0  0  0  0  0  0  0  0  0
   29.3670   14.2830   26.2130 O   0  0  0  0  0  0  0  0  0  0  0  0
   26.9230   14.5690   25.5560 O   0  0  0  0  0  0  0  0  0  0  0  0
   29.8420   16.6200   21.3190 H   0  0  0  0  0  0  0  0  0  0  0  0
   29.7870   17.4290   22.8190 H   0  0  0  0  0  0  0  0  0  0  0  0
   23.5270   12.5910   24.6510 N   0  0  0  0  0  0  0  0  0  0  0  0
   23.2860   13.0420   25.9370 C   0  0  0  0  0  0  0  0  0  0  0  0
   23.8000   14.0300   26.4450 O   0  0  0  0  0  0  0  0  0  0  0  0
   23.1310   11.7200   24.4210 H   0  0  0  0  0  0  0  0  0  0  0  0
   22.2960   12.2530   26.7100 C   0  0  0  0  0  0  0  0  0  0  0  0
   21.1060   11.8660   26.1160 C   0  0  0  0  0  0  0  0  0  0  0  0
   20.2180   11.1340   26.8840 C   0  0  0  0  0  0  0  0  0  0  0  0
   20.5380   10.8140   28.1890 C   0  0  0  0  0  0  0  0  0  0  0  0
   19.7030   10.1130   28.9750 F   0  0  0  0  0  0  0  0  0  0  0  0
   21.7430   11.2490   28.6920 C   0  0  0  0  0  0  0  0  0  0  0  0
   22.6220   11.9660   27.9740 N   0  0  0  0  0  0  0  0  0  0  0  0
  8  9  1  0
  9 10  1  0
 10 11  1  0
 10 12  2  0
 12 13  1  0
 13 14  1  0
 13  1  1  0
  1  2  2  0
  2  3  1  0
  3 21  1  0
 21 22  1  0
 22 23  2  0
 22 25  1  0
 25 26  2  0
 26 27  1  0
 27 28  2  0
 28 29  1  0
 28 30  1  0
 30 31  2  0
  3  4  2  0
  4  5  1  0
  5  6  2  0
  6  7  1  0
 13 15  1  0
 15 16  1  0
 16 17  2  0
 16 18  2  0
 16  9  1  0
  6  1  1  0
 31 25  1  0
 11 19  1  0
 11 20  1  0
 21 24  1  0
M  END
> <meeko>
{"is_sidechain": false}

> <source_group>
BACE1-476

> <source_system>
BACE1_verubecestat

> <source_run>
alternate_476_seed4409_ex32

> <source_seed>
4409

> <vina_pose_rank>
6

> <vina_affinity_kcal_mol>
-8.1300000000000008

> <vina_rmsd_to_crystal_angstrom>
8.2057000000000002

> <minimizedAffinity>
-8.61796

> <CNNscore>
0.0589993633

> <CNNaffinity>
4.5682530403

> <CNN_VS>
0.2695240080

> <CNNaffinity_variance>
1.2017563581

$$$$
BACE1_verubecestat__alternate_476_seed4409_ex32__pose07


 31 33  0  0  0  0  0  0  0  0999 V2000
   25.6110   11.5750   21.2590 C   0  0  0  0  0  0  0  0  0  0  0  0
   25.1010   11.6940   22.5510 C   0  0  0  0  0  0  0  0  0  0  0  0
   23.8480   11.2390   22.8920 C   0  0  0  0  0  0  0  0  0  0  0  0
   23.0260   10.6560   21.9360 C   0  0  0  0  0  0  0  0  0  0  0  0
   23.5180   10.5260   20.6490 C   0  0  0  0  0  0  0  0  0  0  0  0
   24.7900   10.9580   20.3280 C   0  0  0  0  0  0  0  0  0  0  0  0
   25.2590   10.7920   19.0650 F   0  0  0  0  0  0  0  0  0  0  0  0
   25.8760   16.2580   20.8740 C   0  0  0  0  0  0  0  0  0  0  0  0
   26.3800   14.8710   20.8850 N   0  0  0  0  0  0  0  0  0  0  0  0
   26.6640   14.1450   19.7070 C   0  0  0  0  0  0  0  0  0  0  0  0
   26.5750   14.8890   18.5610 N   0  0  0  0  0  0  0  0  0  0  0  0
   27.0030   12.8930   19.6950 N   0  0  0  0  0  0  0  0  0  0  0  0
   27.0020   12.0850   20.9130 C   0  0  0  0  0  0  0  0  0  0  0  0
   27.8850   10.8930   20.5350 C   0  0  0  0  0  0  0  0  0  0  0  0
   27.7080   12.8240   22.0280 C   0  0  0  0  0  0  0  0  0  0  0  0
   26.8320   14.3090   22.4490 S   0  0  0  0  0  0  0  0  0  0  0  0
   27.8180   15.2380   22.9710 O   0  0  0  0  0  0  0  0  0  0  0  0
   25.5830   14.0230   23.0830 O   0  0  0  0  0  0  0  0  0  0  0  0
   26.7550   14.4710   17.6880 H   0  0  0  0  0  0  0  0  0  0  0  0
   26.3320   15.8420   18.6100 H   0  0  0  0  0  0  0  0  0  0  0  0
   23.4550   11.4230   24.2240 N   0  0  0  0  0  0  0  0  0  0  0  0
   22.6990   12.4500   24.7610 C   0  0  0  0  0  0  0  0  0  0  0  0
   22.3520   13.4580   24.1590 O   0  0  0  0  0  0  0  0  0  0  0  0
   23.7540   10.7330   24.8590 H   0  0  0  0  0  0  0  0  0  0  0  0
   22.2720   12.2540   26.1680 C   0  0  0  0  0  0  0  0  0  0  0  0
   21.6660   11.0680   26.5470 C   0  0  0  0  0  0  0  0  0  0  0  0
   21.2850   10.9390   27.8710 C   0  0  0  0  0  0  0  0  0  0  0  0
   21.5200   11.9720   28.7580 C   0  0  0  0  0  0  0  0  0  0  0  0
   21.1600   11.8960   30.0500 F   0  0  0  0  0  0  0  0  0  0  0  0
   22.1240   13.1150   28.2850 C   0  0  0  0  0  0  0  0  0  0  0  0
   22.4980   13.2720   27.0040 N   0  0  0  0  0  0  0  0  0  0  0  0
  8  9  1  0
  9 10  1  0
 10 11  1  0
 10 12  2  0
 12 13  1  0
 13 14  1  0
 13  1  1  0
  1  2  2  0
  2  3  1  0
  3 21  1  0
 21 22  1  0
 22 23  2  0
 22 25  1  0
 25 26  2  0
 26 27  1  0
 27 28  2  0
 28 29  1  0
 28 30  1  0
 30 31  2  0
  3  4  2  0
  4  5  1  0
  5  6  2  0
  6  7  1  0
 13 15  1  0
 15 16  1  0
 16 17  2  0
 16 18  2  0
 16  9  1  0
  6  1  1  0
 31 25  1  0
 11 19  1  0
 11 20  1  0
 21 24  1  0
M  END
> <meeko>
{"is_sidechain": false}

> <source_group>
BACE1-476

> <source_system>
BACE1_verubecestat

> <source_run>
alternate_476_seed4409_ex32

> <source_seed>
4409

> <vina_pose_rank>
7

> <vina_affinity_kcal_mol>
-7.9589999999999996

> <vina_rmsd_to_crystal_angstrom>
7.2690000000000001

> <minimizedAffinity>
-8.98189

> <CNNscore>
0.4939479828

> <CNNaffinity>
6.5251822472

> <CNN_VS>
3.2231006622

> <CNNaffinity_variance>
0.0644938871

$$$$
BACE1_verubecestat__alternate_476_seed4409_ex32__pose08


 31 33  0  0  0  0  0  0  0  0999 V2000
   19.6860   11.5100   27.2720 C   0  0  0  0  0  0  0  0  0  0  0  0
   18.8050   10.8730   26.3990 C   0  0  0  0  0  0  0  0  0  0  0  0
   17.5730   11.3990   26.0830 C   0  0  0  0  0  0  0  0  0  0  0  0
   17.1510   12.5940   26.6520 C   0  0  0  0  0  0  0  0  0  0  0  0
   18.0140   13.2410   27.5180 C   0  0  0  0  0  0  0  0  0  0  0  0
   19.2610   12.7180   27.8010 C   0  0  0  0  0  0  0  0  0  0  0  0
   20.1000   13.3880   28.6320 F   0  0  0  0  0  0  0  0  0  0  0  0
   22.6330   11.3600   23.6050 C   0  0  0  0  0  0  0  0  0  0  0  0
   22.2070   11.1790   25.0070 N   0  0  0  0  0  0  0  0  0  0  0  0
   21.8360    9.9260   25.5430 C   0  0  0  0  0  0  0  0  0  0  0  0
   22.0520    8.8730   24.6950 N   0  0  0  0  0  0  0  0  0  0  0  0
   21.3570    9.7650   26.7380 N   0  0  0  0  0  0  0  0  0  0  0  0
   21.0430   10.9040   27.5990 C   0  0  0  0  0  0  0  0  0  0  0  0
   20.9790   10.2740   28.9920 C   0  0  0  0  0  0  0  0  0  0  0  0
   22.1960   11.8830   27.6070 C   0  0  0  0  0  0  0  0  0  0  0  0
   22.4450   12.5720   25.9900 S   0  0  0  0  0  0  0  0  0  0  0  0
   23.8510   12.9250   25.9020 O   0  0  0  0  0  0  0  0  0  0  0  0
   21.3740   13.4410   25.6160 O   0  0  0  0  0  0  0  0  0  0  0  0
   21.8250    7.9580   24.9790 H   0  0  0  0  0  0  0  0  0  0  0  0
   22.4340    9.0300   23.8010 H   0  0  0  0  0  0  0  0  0  0  0  0
   16.7830   10.6570   25.1940 N   0  0  0  0  0  0  0  0  0  0  0  0
   15.4300   10.7880   24.9370 C   0  0  0  0  0  0  0  0  0  0  0  0
   14.6610   11.5100   25.5590 O   0  0  0  0  0  0  0  0  0  0  0  0
   17.2510    9.9540   24.6880 H   0  0  0  0  0  0  0  0  0  0  0  0
   14.9250    9.9970   23.7890 C   0  0  0  0  0  0  0  0  0  0  0  0
   15.6760    8.9480   23.2880 C   0  0  0  0  0  0  0  0  0  0  0  0
   15.1580    8.2460   22.2140 C   0  0  0  0  0  0  0  0  0  0  0  0
   13.9320    8.6020   21.6870 C   0  0  0  0  0  0  0  0  0  0  0  0
   13.3930    7.9560   20.6390 F   0  0  0  0  0  0  0  0  0  0  0  0
   13.2620    9.6650   22.2490 C   0  0  0  0  0  0  0  0  0  0  0  0
   13.7420   10.3690   23.2880 N   0  0  0  0  0  0  0  0  0  0  0  0
  8  9  1  0
  9 10  1  0
 10 11  1  0
 10 12  2  0
 12 13  1  0
 13 14  1  0
 13  1  1  0
  1  2  2  0
  2  3  1  0
  3 21  1  0
 21 22  1  0
 22 23  2  0
 22 25  1  0
 25 26  2  0
 26 27  1  0
 27 28  2  0
 28 29  1  0
 28 30  1  0
 30 31  2  0
  3  4  2  0
  4  5  1  0
  5  6  2  0
  6  7  1  0
 13 15  1  0
 15 16  1  0
 16 17  2  0
 16 18  2  0
 16  9  1  0
  6  1  1  0
 31 25  1  0
 11 19  1  0
 11 20  1  0
 21 24  1  0
M  END
> <meeko>
{"is_sidechain": false}

> <source_group>
BACE1-476

> <source_system>
BACE1_verubecestat

> <source_run>
alternate_476_seed4409_ex32

> <source_seed>
4409

> <vina_pose_rank>
8

> <vina_affinity_kcal_mol>
-7.7380000000000004

> <vina_rmsd_to_crystal_angstrom>
10.4771

> <minimizedAffinity>
-8.05798

> <CNNscore>
0.6608293056

> <CNNaffinity>
6.5308585167

> <CNN_VS>
4.3157825470

> <CNNaffinity_variance>
0.1445685327

$$$$
BACE1_verubecestat__alternate_476_seed4409_ex32__pose09


 31 33  0  0  0  0  0  0  0  0999 V2000
   26.5090   13.7360   22.8970 C   0  0  0  0  0  0  0  0  0  0  0  0
   25.6300   13.4850   23.9500 C   0  0  0  0  0  0  0  0  0  0  0  0
   24.2860   13.7690   23.8710 C   0  0  0  0  0  0  0  0  0  0  0  0
   23.7550   14.3480   22.7240 C   0  0  0  0  0  0  0  0  0  0  0  0
   24.6120   14.6010   21.6680 C   0  0  0  0  0  0  0  0  0  0  0  0
   25.9530   14.2810   21.7500 C   0  0  0  0  0  0  0  0  0  0  0  0
   26.7670   14.5130   20.6880 F   0  0  0  0  0  0  0  0  0  0  0  0
   29.0580   17.1460   24.9020 C   0  0  0  0  0  0  0  0  0  0  0  0
   28.8080   15.8270   24.2880 N   0  0  0  0  0  0  0  0  0  0  0  0
   29.1380   15.5260   22.9480 C   0  0  0  0  0  0  0  0  0  0  0  0
   29.8470   16.5120   22.3160 N   0  0  0  0  0  0  0  0  0  0  0  0
   28.8270   14.4120   22.3620 N   0  0  0  0  0  0  0  0  0  0  0  0
   27.9890   13.4080   23.0140 C   0  0  0  0  0  0  0  0  0  0  0  0
   28.2790   12.1400   22.2060 C   0  0  0  0  0  0  0  0  0  0  0  0
   28.4800   13.1570   24.4230 C   0  0  0  0  0  0  0  0  0  0  0  0
   28.3160   14.6210   25.4140 S   0  0  0  0  0  0  0  0  0  0  0  0
   29.3420   14.5450   26.4380 O   0  0  0  0  0  0  0  0  0  0  0  0
   26.9450   14.9320   25.6720 O   0  0  0  0  0  0  0  0  0  0  0  0
   30.1240   16.3950   21.3790 H   0  0  0  0  0  0  0  0  0  0  0  0
   30.0810   17.3380   22.7990 H   0  0  0  0  0  0  0  0  0  0  0  0
   23.5130   13.4700   25.0010 N   0  0  0  0  0  0  0  0  0  0  0  0
   23.0790   12.2320   25.4390 C   0  0  0  0  0  0  0  0  0  0  0  0
   23.2000   11.1830   24.8190 O   0  0  0  0  0  0  0  0  0  0  0  0
   23.2450   14.2400   25.5530 H   0  0  0  0  0  0  0  0  0  0  0  0
   22.4570   12.2190   26.7850 C   0  0  0  0  0  0  0  0  0  0  0  0
   22.6860   13.2650   27.6620 C   0  0  0  0  0  0  0  0  0  0  0  0
   22.0830   13.2000   28.9060 C   0  0  0  0  0  0  0  0  0  0  0  0
   21.2840   12.1200   29.2280 C   0  0  0  0  0  0  0  0  0  0  0  0
   20.6850   12.0090   30.4260 F   0  0  0  0  0  0  0  0  0  0  0  0
   21.1210   11.1260   28.2900 C   0  0  0  0  0  0  0  0  0  0  0  0
   21.6990   11.1580   27.0780 N   0  0  0  0  0  0  0  0  0  0  0  0
  8  9  1  0
  9 10  1  0
 10 11  1  0
 10 12  2  0
 12 13  1  0
 13 14  1  0
 13  1  1  0
  1  2  2  0
  2  3  1  0
  3 21  1  0
 21 22  1  0
 22 23  2  0
 22 25  1  0
 25 26  2  0
 26 27  1  0
 27 28  2  0
 28 29  1  0
 28 30  1  0
 30 31  2  0
  3  4  2  0
  4  5  1  0
  5  6  2  0
  6  7  1  0
 13 15  1  0
 15 16  1  0
 16 17  2  0
 16 18  2  0
 16  9  1  0
  6  1  1  0
 31 25  1  0
 11 19  1  0
 11 20  1  0
 21 24  1  0
M  END
> <meeko>
{"is_sidechain": false}

> <source_group>
BACE1-476

> <source_system>
BACE1_verubecestat

> <source_run>
alternate_476_seed4409_ex32

> <source_seed>
4409

> <vina_pose_rank>
9

> <vina_affinity_kcal_mol>
-7.6100000000000003

> <vina_rmsd_to_crystal_angstrom>
8.2302999999999997

> <minimizedAffinity>
-8.30321

> <CNNscore>
0.0317918397

> <CNNaffinity>
4.3077788353

> <CNN_VS>
0.1369522214

> <CNNaffinity_variance>
1.1545478106

$$$$
BACE1_verubecestat__alternate_476_seed4409_ex32__pose10


 31 33  0  0  0  0  0  0  0  0999 V2000
   27.4550   13.5460   23.3300 C   0  0  0  0  0  0  0  0  0  0  0  0
   26.2200   12.9800   23.6440 C   0  0  0  0  0  0  0  0  0  0  0  0
   25.5880   13.2100   24.8450 C   0  0  0  0  0  0  0  0  0  0  0  0
   26.1840   14.0120   25.8110 C   0  0  0  0  0  0  0  0  0  0  0  0
   27.4090   14.5840   25.5150 C   0  0  0  0  0  0  0  0  0  0  0  0
   28.0160   14.3700   24.2930 C   0  0  0  0  0  0  0  0  0  0  0  0
   29.2030   14.9680   24.0170 F   0  0  0  0  0  0  0  0  0  0  0  0
   24.5100   13.7050   19.6620 C   0  0  0  0  0  0  0  0  0  0  0  0
   25.8090   13.5610   20.3490 N   0  0  0  0  0  0  0  0  0  0  0  0
   26.4200   12.3100   20.5870 C   0  0  0  0  0  0  0  0  0  0  0  0
   25.7800   11.2570   19.9920 N   0  0  0  0  0  0  0  0  0  0  0  0
   27.5040   12.1580   21.2830 N   0  0  0  0  0  0  0  0  0  0  0  0
   28.1260   13.2750   21.9920 C   0  0  0  0  0  0  0  0  0  0  0  0
   29.5490   12.7710   22.2460 C   0  0  0  0  0  0  0  0  0  0  0  0
   28.2360   14.4740   21.0770 C   0  0  0  0  0  0  0  0  0  0  0  0
   26.6260   15.0540   20.6060 S   0  0  0  0  0  0  0  0  0  0  0  0
   26.7780   15.6900   19.3090 O   0  0  0  0  0  0  0  0  0  0  0  0
   25.9330   15.6390   21.7110 O   0  0  0  0  0  0  0  0  0  0  0  0
   26.1310   10.3430   20.0990 H   0  0  0  0  0  0  0  0  0  0  0  0
   24.9690   11.4130   19.4560 H   0  0  0  0  0  0  0  0  0  0  0  0
   24.3520   12.5790   25.0350 N   0  0  0  0  0  0  0  0  0  0  0  0
   23.3110   12.9650   25.8610 C   0  0  0  0  0  0  0  0  0  0  0  0
   23.3590   13.8780   26.6750 O   0  0  0  0  0  0  0  0  0  0  0  0
   24.2060   11.7560   24.5150 H   0  0  0  0  0  0  0  0  0  0  0  0
   22.0490   12.2070   25.6840 C   0  0  0  0  0  0  0  0  0  0  0  0
   20.8320   12.8340   25.8870 C   0  0  0  0  0  0  0  0  0  0  0  0
   19.6860   12.0780   25.7110 C   0  0  0  0  0  0  0  0  0  0  0  0
   19.7870   10.7510   25.3420 C   0  0  0  0  0  0  0  0  0  0  0  0
   18.7030    9.9760   25.1680 F   0  0  0  0  0  0  0  0  0  0  0  0
   21.0430   10.2150   25.1690 C   0  0  0  0  0  0  0  0  0  0  0  0
   22.1730   10.9210   25.3390 N   0  0  0  0  0  0  0  0  0  0  0  0
  8  9  1  0
  9 10  1  0
 10 11  1  0
 10 12  2  0
 12 13  1  0
 13 14  1  0
 13  1  1  0
  1  2  2  0
  2  3  1  0
  3 21  1  0
 21 22  1  0
 22 23  2  0
 22 25  1  0
 25 26  2  0
 26 27  1  0
 27 28  2  0
 28 29  1  0
 28 30  1  0
 30 31  2  0
  3  4  2  0
  4  5  1  0
  5  6  2  0
  6  7  1  0
 13 15  1  0
 15 16  1  0
 16 17  2  0
 16 18  2  0
 16  9  1  0
  6  1  1  0
 31 25  1  0
 11 19  1  0
 11 20  1  0
 21 24  1  0
M  END
> <meeko>
{"is_sidechain": false}

> <source_group>
BACE1-476

> <source_system>
BACE1_verubecestat

> <source_run>
alternate_476_seed4409_ex32

> <source_seed>
4409

> <vina_pose_rank>
10

> <vina_affinity_kcal_mol>
-7.5179999999999998

> <vina_rmsd_to_crystal_angstrom>
8.0541

> <minimizedAffinity>
-7.92126

> <CNNscore>
0.0118896114

> <CNNaffinity>
3.5270788670

> <CNN_VS>
0.0419355966

> <CNNaffinity_variance>
2.5664579868

$$$$
BACE1_verubecestat__alternate_476_seed4409_ex32__pose11


 31 33  0  0  0  0  0  0  0  0999 V2000
   25.9290   14.0060   22.8590 C   0  0  0  0  0  0  0  0  0  0  0  0
   24.8780   13.9450   23.7730 C   0  0  0  0  0  0  0  0  0  0  0  0
   25.0880   13.8620   25.1310 C   0  0  0  0  0  0  0  0  0  0  0  0
   26.3800   13.8130   25.6410 C   0  0  0  0  0  0  0  0  0  0  0  0
   27.4350   13.8760   24.7480 C   0  0  0  0  0  0  0  0  0  0  0  0
   27.2090   13.9920   23.3910 C   0  0  0  0  0  0  0  0  0  0  0  0
   28.2620   14.0810   22.5380 F   0  0  0  0  0  0  0  0  0  0  0  0
   25.1750    9.8430   20.7970 C   0  0  0  0  0  0  0  0  0  0  0  0
   25.2950   11.3120   20.8750 N   0  0  0  0  0  0  0  0  0  0  0  0
   26.4360   12.0160   20.4290 C   0  0  0  0  0  0  0  0  0  0  0  0
   27.3530   11.2340   19.7800 N   0  0  0  0  0  0  0  0  0  0  0  0
   26.6040   13.2930   20.5880 N   0  0  0  0  0  0  0  0  0  0  0  0
   25.6640   14.1000   21.3640 C   0  0  0  0  0  0  0  0  0  0  0  0
   25.9700   15.5260   20.8970 C   0  0  0  0  0  0  0  0  0  0  0  0
   24.2440   13.7910   20.9440 C   0  0  0  0  0  0  0  0  0  0  0  0
   23.8330   12.1050   21.3170 S   0  0  0  0  0  0  0  0  0  0  0  0
   22.8190   11.7050   20.3580 O   0  0  0  0  0  0  0  0  0  0  0  0
   23.7370   11.8850   22.7260 O   0  0  0  0  0  0  0  0  0  0  0  0
   28.1830   11.6340   19.4320 H   0  0  0  0  0  0  0  0  0  0  0  0
   27.1840   10.2710   19.6620 H   0  0  0  0  0  0  0  0  0  0  0  0
   23.9460   13.8040   25.9410 N   0  0  0  0  0  0  0  0  0  0  0  0
   23.2130   12.6900   26.3100 C   0  0  0  0  0  0  0  0  0  0  0  0
   23.3790   11.5600   25.8700 O   0  0  0  0  0  0  0  0  0  0  0  0
   23.6250   14.6660   26.2920 H   0  0  0  0  0  0  0  0  0  0  0  0
   22.1810   12.9280   27.3480 C   0  0  0  0  0  0  0  0  0  0  0  0
   22.5000   13.6430   28.4890 C   0  0  0  0  0  0  0  0  0  0  0  0
   21.4990   13.8330   29.4260 C   0  0  0  0  0  0  0  0  0  0  0  0
   20.2370   13.3180   29.1980 C   0  0  0  0  0  0  0  0  0  0  0  0
   19.2360   13.4700   30.0820 F   0  0  0  0  0  0  0  0  0  0  0  0
   20.0180   12.6160   28.0340 C   0  0  0  0  0  0  0  0  0  0  0  0
   20.9710   12.4100   27.1100 N   0  0  0  0  0  0  0  0  0  0  0  0
  8  9  1  0
  9 10  1  0
 10 11  1  0
 10 12  2  0
 12 13  1  0
 13 14  1  0
 13  1  1  0
  1  2  2  0
  2  3  1  0
  3 21  1  0
 21 22  1  0
 22 23  2  0
 22 25  1  0
 25 26  2  0
 26 27  1  0
 27 28  2  0
 28 29  1  0
 28 30  1  0
 30 31  2  0
  3  4  2  0
  4  5  1  0
  5  6  2  0
  6  7  1  0
 13 15  1  0
 15 16  1  0
 16 17  2  0
 16 18  2  0
 16  9  1  0
  6  1  1  0
 31 25  1  0
 11 19  1  0
 11 20  1  0
 21 24  1  0
M  END
> <meeko>
{"is_sidechain": false}

> <source_group>
BACE1-476

> <source_system>
BACE1_verubecestat

> <source_run>
alternate_476_seed4409_ex32

> <source_seed>
4409

> <vina_pose_rank>
11

> <vina_affinity_kcal_mol>
-7.5179999999999998

> <vina_rmsd_to_crystal_angstrom>
7.9470999999999998

> <minimizedAffinity>
-8.25451

> <CNNscore>
0.0208752938

> <CNNaffinity>
3.9459197521

> <CNN_VS>
0.0823722333

> <CNNaffinity_variance>
1.8286342621

$$$$
BACE1_verubecestat__alternate_476_seed4409_ex32__pose12


 31 33  0  0  0  0  0  0  0  0999 V2000
   24.9380   12.7210   21.1920 C   0  0  0  0  0  0  0  0  0  0  0  0
   25.7500   13.5880   20.4610 C   0  0  0  0  0  0  0  0  0  0  0  0
   25.2610   14.3660   19.4360 C   0  0  0  0  0  0  0  0  0  0  0  0
   23.9210   14.2930   19.0750 C   0  0  0  0  0  0  0  0  0  0  0  0
   23.1000   13.4410   19.7920 C   0  0  0  0  0  0  0  0  0  0  0  0
   23.5980   12.6900   20.8390 C   0  0  0  0  0  0  0  0  0  0  0  0
   22.7650   11.8830   21.5450 F   0  0  0  0  0  0  0  0  0  0  0  0
   26.8690   15.2470   24.6620 C   0  0  0  0  0  0  0  0  0  0  0  0
   26.4250   14.0240   23.9640 N   0  0  0  0  0  0  0  0  0  0  0  0
   27.3090   13.1730   23.2640 C   0  0  0  0  0  0  0  0  0  0  0  0
   28.6310   13.4980   23.4170 N   0  0  0  0  0  0  0  0  0  0  0  0
   26.9230   12.1570   22.5550 N   0  0  0  0  0  0  0  0  0  0  0  0
   25.5080   11.8770   22.3210 C   0  0  0  0  0  0  0  0  0  0  0  0
   25.5160   10.4090   21.8860 C   0  0  0  0  0  0  0  0  0  0  0  0
   24.7420   11.9490   23.6240 C   0  0  0  0  0  0  0  0  0  0  0  0
   24.7910   13.5940   24.2900 S   0  0  0  0  0  0  0  0  0  0  0  0
   24.6600   13.4610   25.7300 O   0  0  0  0  0  0  0  0  0  0  0  0
   24.0310   14.5080   23.4950 O   0  0  0  0  0  0  0  0  0  0  0  0
   29.3240   12.9620   22.9680 H   0  0  0  0  0  0  0  0  0  0  0  0
   28.8880   14.2650   23.9770 H   0  0  0  0  0  0  0  0  0  0  0  0
   26.1830   15.1920   18.7800 N   0  0  0  0  0  0  0  0  0  0  0  0
   26.5570   16.4840   19.1040 C   0  0  0  0  0  0  0  0  0  0  0  0
   26.0310   17.1750   19.9670 O   0  0  0  0  0  0  0  0  0  0  0  0
   26.6210   14.8030   17.9890 H   0  0  0  0  0  0  0  0  0  0  0  0
   27.7130   17.0180   18.3430 C   0  0  0  0  0  0  0  0  0  0  0  0
   28.8760   17.3650   19.0070 C   0  0  0  0  0  0  0  0  0  0  0  0
   29.9230   17.8600   18.2480 C   0  0  0  0  0  0  0  0  0  0  0  0
   29.7800   17.9870   16.8800 C   0  0  0  0  0  0  0  0  0  0  0  0
   30.7640   18.4710   16.1040 F   0  0  0  0  0  0  0  0  0  0  0  0
   28.5810   17.6200   16.3110 C   0  0  0  0  0  0  0  0  0  0  0  0
   27.5460   17.1430   17.0220 N   0  0  0  0  0  0  0  0  0  0  0  0
  8  9  1  0
  9 10  1  0
 10 11  1  0
 10 12  2  0
 12 13  1  0
 13 14  1  0
 13  1  1  0
  1  2  2  0
  2  3  1  0
  3 21  1  0
 21 22  1  0
 22 23  2  0
 22 25  1  0
 25 26  2  0
 26 27  1  0
 27 28  2  0
 28 29  1  0
 28 30  1  0
 30 31  2  0
  3  4  2  0
  4  5  1  0
  5  6  2  0
  6  7  1  0
 13 15  1  0
 15 16  1  0
 16 17  2  0
 16 18  2  0
 16  9  1  0
  6  1  1  0
 31 25  1  0
 11 19  1  0
 11 20  1  0
 21 24  1  0
M  END
> <meeko>
{"is_sidechain": false}

> <source_group>
BACE1-476

> <source_system>
BACE1_verubecestat

> <source_run>
alternate_476_seed4409_ex32

> <source_seed>
4409

> <vina_pose_rank>
12

> <vina_affinity_kcal_mol>
-7.5030000000000001

> <vina_rmsd_to_crystal_angstrom>
6.4383999999999997

> <minimizedAffinity>
-7.36693

> <CNNscore>
0.1334131658

> <CNNaffinity>
5.7529492378

> <CNN_VS>
0.7675191760

> <CNNaffinity_variance>
0.0981955752

$$$$
BACE1_verubecestat__alternate_476_seed4409_ex32__pose13


 31 33  0  0  0  0  0  0  0  0999 V2000
   26.3460   14.4500   21.0850 C   0  0  0  0  0  0  0  0  0  0  0  0
   25.5770   13.9330   22.1270 C   0  0  0  0  0  0  0  0  0  0  0  0
   24.5310   13.0650   21.9090 C   0  0  0  0  0  0  0  0  0  0  0  0
   24.1880   12.6880   20.6170 C   0  0  0  0  0  0  0  0  0  0  0  0
   24.9420   13.1890   19.5710 C   0  0  0  0  0  0  0  0  0  0  0  0
   26.0090   14.0330   19.8070 C   0  0  0  0  0  0  0  0  0  0  0  0
   26.7520   14.4880   18.7650 F   0  0  0  0  0  0  0  0  0  0  0  0
   28.6360   13.5630   25.1000 C   0  0  0  0  0  0  0  0  0  0  0  0
   28.3560   14.2560   23.8270 N   0  0  0  0  0  0  0  0  0  0  0  0
   27.7080   15.5090   23.7580 C   0  0  0  0  0  0  0  0  0  0  0  0
   27.5000   16.0940   24.9790 N   0  0  0  0  0  0  0  0  0  0  0  0
   27.3570   16.0800   22.6480 N   0  0  0  0  0  0  0  0  0  0  0  0
   27.4980   15.4050   21.3590 C   0  0  0  0  0  0  0  0  0  0  0  0
   27.4300   16.5610   20.3570 C   0  0  0  0  0  0  0  0  0  0  0  0
   28.8770   14.7960   21.2400 C   0  0  0  0  0  0  0  0  0  0  0  0
   29.1100   13.5280   22.4610 S   0  0  0  0  0  0  0  0  0  0  0  0
   30.5350   13.4740   22.7340 O   0  0  0  0  0  0  0  0  0  0  0  0
   28.2990   12.3820   22.1920 O   0  0  0  0  0  0  0  0  0  0  0  0
   27.0540   16.9700   25.0350 H   0  0  0  0  0  0  0  0  0  0  0  0
   27.7960   15.6390   25.8000 H   0  0  0  0  0  0  0  0  0  0  0  0
   23.8370   12.6220   23.0420 N   0  0  0  0  0  0  0  0  0  0  0  0
   22.7540   13.2110   23.6700 C   0  0  0  0  0  0  0  0  0  0  0  0
   22.2980   14.3140   23.3980 O   0  0  0  0  0  0  0  0  0  0  0  0
   24.1620   11.7830   23.4430 H   0  0  0  0  0  0  0  0  0  0  0  0
   22.1080   12.3890   24.7220 C   0  0  0  0  0  0  0  0  0  0  0  0
   22.2230   11.0100   24.6900 C   0  0  0  0  0  0  0  0  0  0  0  0
   21.5990   10.2930   25.6950 C   0  0  0  0  0  0  0  0  0  0  0  0
   20.8970   10.9590   26.6810 C   0  0  0  0  0  0  0  0  0  0  0  0
   20.2670   10.3050   27.6720 F   0  0  0  0  0  0  0  0  0  0  0  0
   20.8340   12.3330   26.6240 C   0  0  0  0  0  0  0  0  0  0  0  0
   21.4250   13.0560   25.6580 N   0  0  0  0  0  0  0  0  0  0  0  0
  8  9  1  0
  9 10  1  0
 10 11  1  0
 10 12  2  0
 12 13  1  0
 13 14  1  0
 13  1  1  0
  1  2  2  0
  2  3  1  0
  3 21  1  0
 21 22  1  0
 22 23  2  0
 22 25  1  0
 25 26  2  0
 26 27  1  0
 27 28  2  0
 28 29  1  0
 28 30  1  0
 30 31  2  0
  3  4  2  0
  4  5  1  0
  5  6  2  0
  6  7  1  0
 13 15  1  0
 15 16  1  0
 16 17  2  0
 16 18  2  0
 16  9  1  0
  6  1  1  0
 31 25  1  0
 11 19  1  0
 11 20  1  0
 21 24  1  0
M  END
> <meeko>
{"is_sidechain": false}

> <source_group>
BACE1-476

> <source_system>
BACE1_verubecestat

> <source_run>
alternate_476_seed4409_ex32

> <source_seed>
4409

> <vina_pose_rank>
13

> <vina_affinity_kcal_mol>
-7.2679999999999998

> <vina_rmsd_to_crystal_angstrom>
7.6932999999999998

> <minimizedAffinity>
-7.65005

> <CNNscore>
0.0106491251

> <CNNaffinity>
4.6721858978

> <CNN_VS>
0.0497546904

> <CNNaffinity_variance>
0.3696422577

$$$$
BACE1_verubecestat__alternate_476_seed4409_ex32__pose14


 31 33  0  0  0  0  0  0  0  0999 V2000
   26.7320   14.0660   23.2250 C   0  0  0  0  0  0  0  0  0  0  0  0
   25.4050   13.6800   23.4080 C   0  0  0  0  0  0  0  0  0  0  0  0
   24.8400   13.5580   24.6570 C   0  0  0  0  0  0  0  0  0  0  0  0
   25.5950   13.7980   25.7980 C   0  0  0  0  0  0  0  0  0  0  0  0
   26.9140   14.1850   25.6350 C   0  0  0  0  0  0  0  0  0  0  0  0
   27.4590   14.3350   24.3750 C   0  0  0  0  0  0  0  0  0  0  0  0
   28.7460   14.7440   24.2420 F   0  0  0  0  0  0  0  0  0  0  0  0
   28.8260   10.1430   21.6820 C   0  0  0  0  0  0  0  0  0  0  0  0
   28.3370   11.5340   21.6100 N   0  0  0  0  0  0  0  0  0  0  0  0
   29.1820   12.6560   21.7650 C   0  0  0  0  0  0  0  0  0  0  0  0
   30.5130   12.3430   21.8360 N   0  0  0  0  0  0  0  0  0  0  0  0
   28.7550   13.8800   21.8130 N   0  0  0  0  0  0  0  0  0  0  0  0
   27.3270   14.1950   21.8320 C   0  0  0  0  0  0  0  0  0  0  0  0
   27.2960   15.6680   21.4150 C   0  0  0  0  0  0  0  0  0  0  0  0
   26.6090   13.4140   20.7530 C   0  0  0  0  0  0  0  0  0  0  0  0
   26.7080   11.6710   21.0700 S   0  0  0  0  0  0  0  0  0  0  0  0
   26.6260   11.0100   19.7800 O   0  0  0  0  0  0  0  0  0  0  0  0
   25.9360   11.2980   22.2140 O   0  0  0  0  0  0  0  0  0  0  0  0
   31.1810   13.0580   21.9450 H   0  0  0  0  0  0  0  0  0  0  0  0
   30.8020   11.4040   21.7790 H   0  0  0  0  0  0  0  0  0  0  0  0
   23.4970   13.1610   24.7020 N   0  0  0  0  0  0  0  0  0  0  0  0
   22.9770   11.9400   25.0960 C   0  0  0  0  0  0  0  0  0  0  0  0
   23.6380   10.9430   25.3540 O   0  0  0  0  0  0  0  0  0  0  0  0
   22.8400   13.8360   24.4180 H   0  0  0  0  0  0  0  0  0  0  0  0
   21.5010   11.8960   25.2350 C   0  0  0  0  0  0  0  0  0  0  0  0
   20.8620   10.6850   25.4340 C   0  0  0  0  0  0  0  0  0  0  0  0
   19.4830   10.7020   25.5550 C   0  0  0  0  0  0  0  0  0  0  0  0
   18.8010   11.9000   25.4800 C   0  0  0  0  0  0  0  0  0  0  0  0
   17.4620   11.9650   25.5820 F   0  0  0  0  0  0  0  0  0  0  0  0
   19.5250   13.0530   25.2740 C   0  0  0  0  0  0  0  0  0  0  0  0
   20.8620   13.0670   25.1470 N   0  0  0  0  0  0  0  0  0  0  0  0
  8  9  1  0
  9 10  1  0
 10 11  1  0
 10 12  2  0
 12 13  1  0
 13 14  1  0
 13  1  1  0
  1  2  2  0
  2  3  1  0
  3 21  1  0
 21 22  1  0
 22 23  2  0
 22 25  1  0
 25 26  2  0
 26 27  1  0
 27 28  2  0
 28 29  1  0
 28 30  1  0
 30 31  2  0
  3  4  2  0
  4  5  1  0
  5  6  2  0
  6  7  1  0
 13 15  1  0
 15 16  1  0
 16 17  2  0
 16 18  2  0
 16  9  1  0
  6  1  1  0
 31 25  1  0
 11 19  1  0
 11 20  1  0
 21 24  1  0
M  END
> <meeko>
{"is_sidechain": false}

> <source_group>
BACE1-476

> <source_system>
BACE1_verubecestat

> <source_run>
alternate_476_seed4409_ex32

> <source_seed>
4409

> <vina_pose_rank>
14

> <vina_affinity_kcal_mol>
-7.2530000000000001

> <vina_rmsd_to_crystal_angstrom>
8.3658000000000001

> <minimizedAffinity>
-7.80840

> <CNNscore>
0.0153872827

> <CNNaffinity>
4.0620188713

> <CNN_VS>
0.0625034347

> <CNNaffinity_variance>
1.3720928431

$$$$
BACE1_verubecestat__alternate_476_seed4409_ex32__pose15


 31 33  0  0  0  0  0  0  0  0999 V2000
   27.4680   14.0960   22.5790 C   0  0  0  0  0  0  0  0  0  0  0  0
   26.3250   13.6800   23.2610 C   0  0  0  0  0  0  0  0  0  0  0  0
   25.0600   14.0720   22.8860 C   0  0  0  0  0  0  0  0  0  0  0  0
   24.8800   14.9290   21.8070 C   0  0  0  0  0  0  0  0  0  0  0  0
   26.0030   15.3490   21.1160 C   0  0  0  0  0  0  0  0  0  0  0  0
   27.2640   14.9230   21.4850 C   0  0  0  0  0  0  0  0  0  0  0  0
   28.3470   15.3260   20.7720 F   0  0  0  0  0  0  0  0  0  0  0  0
   29.7160   17.2150   25.2940 C   0  0  0  0  0  0  0  0  0  0  0  0
   29.5210   15.9430   24.5710 N   0  0  0  0  0  0  0  0  0  0  0  0
   30.1330   15.6620   23.3290 C   0  0  0  0  0  0  0  0  0  0  0  0
   31.0400   16.6070   22.9300 N   0  0  0  0  0  0  0  0  0  0  0  0
   29.8890   14.5970   22.6290 N   0  0  0  0  0  0  0  0  0  0  0  0
   28.8520   13.6440   23.0170 C   0  0  0  0  0  0  0  0  0  0  0  0
   29.2320   12.3850   22.2320 C   0  0  0  0  0  0  0  0  0  0  0  0
   28.9810   13.3050   24.4860 C   0  0  0  0  0  0  0  0  0  0  0  0
   28.6950   14.7420   25.4880 S   0  0  0  0  0  0  0  0  0  0  0  0
   29.4450   14.5470   26.7150 O   0  0  0  0  0  0  0  0  0  0  0  0
   27.3270   15.1560   25.4390 O   0  0  0  0  0  0  0  0  0  0  0  0
   31.5190   16.5000   22.0770 H   0  0  0  0  0  0  0  0  0  0  0  0
   31.2130   17.3940   23.4970 H   0  0  0  0  0  0  0  0  0  0  0  0
   23.9970   13.5850   23.6570 N   0  0  0  0  0  0  0  0  0  0  0  0
   23.1180   12.5600   23.3550 C   0  0  0  0  0  0  0  0  0  0  0  0
   23.0510   11.9840   22.2770 O   0  0  0  0  0  0  0  0  0  0  0  0
   23.8580   14.0280   24.5250 H   0  0  0  0  0  0  0  0  0  0  0  0
   22.2320   12.1370   24.4670 C   0  0  0  0  0  0  0  0  0  0  0  0
   22.3660   10.8730   25.0150 C   0  0  0  0  0  0  0  0  0  0  0  0
   21.5130   10.5300   26.0490 C   0  0  0  0  0  0  0  0  0  0  0  0
   20.5750   11.4400   26.4960 C   0  0  0  0  0  0  0  0  0  0  0  0
   19.7180   11.1490   27.4910 F   0  0  0  0  0  0  0  0  0  0  0  0
   20.5140   12.6710   25.8840 C   0  0  0  0  0  0  0  0  0  0  0  0
   21.3250   13.0300   24.8750 N   0  0  0  0  0  0  0  0  0  0  0  0
  8  9  1  0
  9 10  1  0
 10 11  1  0
 10 12  2  0
 12 13  1  0
 13 14  1  0
 13  1  1  0
  1  2  2  0
  2  3  1  0
  3 21  1  0
 21 22  1  0
 22 23  2  0
 22 25  1  0
 25 26  2  0
 26 27  1  0
 27 28  2  0
 28 29  1  0
 28 30  1  0
 30 31  2  0
  3  4  2  0
  4  5  1  0
  5  6  2  0
  6  7  1  0
 13 15  1  0
 15 16  1  0
 16 17  2  0
 16 18  2  0
 16  9  1  0
  6  1  1  0
 31 25  1  0
 11 19  1  0
 11 20  1  0
 21 24  1  0
M  END
> <meeko>
{"is_sidechain": false}

> <source_group>
BACE1-476

> <source_system>
BACE1_verubecestat

> <source_run>
alternate_476_seed4409_ex32

> <source_seed>
4409

> <vina_pose_rank>
15

> <vina_affinity_kcal_mol>
-7.2130000000000001

> <vina_rmsd_to_crystal_angstrom>
8.2797000000000001

> <minimizedAffinity>
-7.75424

> <CNNscore>
0.0214018468

> <CNNaffinity>
4.4004611969

> <CNN_VS>
0.0941779986

> <CNNaffinity_variance>
0.7456292510

$$$$
BACE1_verubecestat__alternate_476_seed4409_ex32__pose16


 31 33  0  0  0  0  0  0  0  0999 V2000
   18.5340   12.0120   26.3500 C   0  0  0  0  0  0  0  0  0  0  0  0
   19.5960   12.4470   25.5600 C   0  0  0  0  0  0  0  0  0  0  0  0
   20.8520   12.6750   26.0750 C   0  0  0  0  0  0  0  0  0  0  0  0
   21.1000   12.4950   27.4300 C   0  0  0  0  0  0  0  0  0  0  0  0
   20.0580   12.0590   28.2290 C   0  0  0  0  0  0  0  0  0  0  0  0
   18.8110   11.8040   27.6930 C   0  0  0  0  0  0  0  0  0  0  0  0
   17.8130   11.3500   28.4940 F   0  0  0  0  0  0  0  0  0  0  0  0
   15.2590   15.0670   27.7970 C   0  0  0  0  0  0  0  0  0  0  0  0
   15.8040   13.9310   27.0270 N   0  0  0  0  0  0  0  0  0  0  0  0
   15.5780   12.5820   27.3790 C   0  0  0  0  0  0  0  0  0  0  0  0
   14.6860   12.4180   28.4050 N   0  0  0  0  0  0  0  0  0  0  0  0
   16.1370   11.5760   26.7800 N   0  0  0  0  0  0  0  0  0  0  0  0
   17.1580   11.7660   25.7510 C   0  0  0  0  0  0  0  0  0  0  0  0
   17.1680   10.4180   25.0250 C   0  0  0  0  0  0  0  0  0  0  0  0
   16.7000   12.8040   24.7500 C   0  0  0  0  0  0  0  0  0  0  0  0
   16.5200   14.3890   25.5290 S   0  0  0  0  0  0  0  0  0  0  0  0
   15.5110   15.1090   24.7730 O   0  0  0  0  0  0  0  0  0  0  0  0
   17.7840   14.9380   25.9080 O   0  0  0  0  0  0  0  0  0  0  0  0
   14.4630   11.5130   28.7230 H   0  0  0  0  0  0  0  0  0  0  0  0
   14.2680   13.2040   28.8250 H   0  0  0  0  0  0  0  0  0  0  0  0
   21.8310   13.1130   25.1730 N   0  0  0  0  0  0  0  0  0  0  0  0
   22.5580   12.3630   24.2660 C   0  0  0  0  0  0  0  0  0  0  0  0
   22.5500   11.1410   24.1960 O   0  0  0  0  0  0  0  0  0  0  0  0
   22.0250   14.0780   25.1860 H   0  0  0  0  0  0  0  0  0  0  0  0
   23.3680   13.1470   23.3020 C   0  0  0  0  0  0  0  0  0  0  0  0
   23.4070   12.7740   21.9690 C   0  0  0  0  0  0  0  0  0  0  0  0
   24.1800   13.5390   21.1140 C   0  0  0  0  0  0  0  0  0  0  0  0
   24.8720   14.6310   21.6030 C   0  0  0  0  0  0  0  0  0  0  0  0
   25.6420   15.3970   20.8120 F   0  0  0  0  0  0  0  0  0  0  0  0
   24.7740   14.9180   22.9450 C   0  0  0  0  0  0  0  0  0  0  0  0
   24.0370   14.1910   23.8000 N   0  0  0  0  0  0  0  0  0  0  0  0
  8  9  1  0
  9 10  1  0
 10 11  1  0
 10 12  2  0
 12 13  1  0
 13 14  1  0
 13  1  1  0
  1  2  2  0
  2  3  1  0
  3 21  1  0
 21 22  1  0
 22 23  2  0
 22 25  1  0
 25 26  2  0
 26 27  1  0
 27 28  2  0
 28 29  1  0
 28 30  1  0
 30 31  2  0
  3  4  2  0
  4  5  1  0
  5  6  2  0
  6  7  1  0
 13 15  1  0
 15 16  1  0
 16 17  2  0
 16 18  2  0
 16  9  1  0
  6  1  1  0
 31 25  1  0
 11 19  1  0
 11 20  1  0
 21 24  1  0
M  END
> <meeko>
{"is_sidechain": false}

> <source_group>
BACE1-476

> <source_system>
BACE1_verubecestat

> <source_run>
alternate_476_seed4409_ex32

> <source_seed>
4409

> <vina_pose_rank>
16

> <vina_affinity_kcal_mol>
-7.0700000000000003

> <vina_rmsd_to_crystal_angstrom>
7.6498999999999997

> <minimizedAffinity>
-7.63784

> <CNNscore>
0.1350992173

> <CNNaffinity>
5.3274693489

> <CNN_VS>
0.7197369337

> <CNNaffinity_variance>
0.0862445608

$$$$
BACE1_verubecestat__alternate_476_seed4409_ex32__pose17


 31 33  0  0  0  0  0  0  0  0999 V2000
   25.0070   13.4260   23.3530 C   0  0  0  0  0  0  0  0  0  0  0  0
   25.9270   14.2030   22.6520 C   0  0  0  0  0  0  0  0  0  0  0  0
   27.1320   14.5870   23.1950 C   0  0  0  0  0  0  0  0  0  0  0  0
   27.4660   14.2230   24.4940 C   0  0  0  0  0  0  0  0  0  0  0  0
   26.5660   13.4480   25.2030 C   0  0  0  0  0  0  0  0  0  0  0  0
   25.3740   13.0440   24.6340 C   0  0  0  0  0  0  0  0  0  0  0  0
   24.5210   12.2590   25.3410 F   0  0  0  0  0  0  0  0  0  0  0  0
   25.4090   11.8870   18.9230 C   0  0  0  0  0  0  0  0  0  0  0  0
   24.7140   12.2160   20.1840 N   0  0  0  0  0  0  0  0  0  0  0  0
   23.9430   13.3870   20.3550 C   0  0  0  0  0  0  0  0  0  0  0  0
   23.7710   14.1120   19.2060 N   0  0  0  0  0  0  0  0  0  0  0  0
   23.4160   13.7450   21.4850 N   0  0  0  0  0  0  0  0  0  0  0  0
   23.6840   13.0160   22.7230 C   0  0  0  0  0  0  0  0  0  0  0  0
   22.5410   13.4620   23.6390 C   0  0  0  0  0  0  0  0  0  0  0  0
   23.5170   11.5300   22.4970 C   0  0  0  0  0  0  0  0  0  0  0  0
   24.7160   10.9330   21.3320 S   0  0  0  0  0  0  0  0  0  0  0  0
   24.1250    9.7760   20.6850 O   0  0  0  0  0  0  0  0  0  0  0  0
   26.0380   10.9620   21.8750 O   0  0  0  0  0  0  0  0  0  0  0  0
   23.2480   14.9460   19.2240 H   0  0  0  0  0  0  0  0  0  0  0  0
   24.1710   13.8000   18.3620 H   0  0  0  0  0  0  0  0  0  0  0  0
   27.9650   15.3700   22.3850 N   0  0  0  0  0  0  0  0  0  0  0  0
   29.3330   15.2610   22.2040 C   0  0  0  0  0  0  0  0  0  0  0  0
   30.0710   14.5210   22.8410 O   0  0  0  0  0  0  0  0  0  0  0  0
   27.5210   16.0890   21.8810 H   0  0  0  0  0  0  0  0  0  0  0  0
   29.8960   16.1010   21.1190 C   0  0  0  0  0  0  0  0  0  0  0  0
   29.0510   16.8130   20.2870 C   0  0  0  0  0  0  0  0  0  0  0  0
   29.6310   17.5790   19.2900 C   0  0  0  0  0  0  0  0  0  0  0  0
   31.0060   17.6120   19.1600 C   0  0  0  0  0  0  0  0  0  0  0  0
   31.6130   18.3330   18.2020 F   0  0  0  0  0  0  0  0  0  0  0  0
   31.7630   16.8630   20.0330 C   0  0  0  0  0  0  0  0  0  0  0  0
   31.2290   16.1070   21.0060 N   0  0  0  0  0  0  0  0  0  0  0  0
  8  9  1  0
  9 10  1  0
 10 11  1  0
 10 12  2  0
 12 13  1  0
 13 14  1  0
 13  1  1  0
  1  2  2  0
  2  3  1  0
  3 21  1  0
 21 22  1  0
 22 23  2  0
 22 25  1  0
 25 26  2  0
 26 27  1  0
 27 28  2  0
 28 29  1  0
 28 30  1  0
 30 31  2  0
  3  4  2  0
  4  5  1  0
  5  6  2  0
  6  7  1  0
 13 15  1  0
 15 16  1  0
 16 17  2  0
 16 18  2  0
 16  9  1  0
  6  1  1  0
 31 25  1  0
 11 19  1  0
 11 20  1  0
 21 24  1  0
M  END
> <meeko>
{"is_sidechain": false}

> <source_group>
BACE1-476

> <source_system>
BACE1_verubecestat

> <source_run>
alternate_476_seed4409_ex32

> <source_seed>
4409

> <vina_pose_rank>
17

> <vina_affinity_kcal_mol>
-7.0289999999999999

> <vina_rmsd_to_crystal_angstrom>
6.4077000000000002

> <minimizedAffinity>
-7.22366

> <CNNscore>
0.0788102821

> <CNNaffinity>
4.9089055061

> <CNN_VS>
0.3868722320

> <CNNaffinity_variance>
0.6494653225

$$$$
BACE1_verubecestat__alternate_476_seed4409_ex32__pose18


 31 33  0  0  0  0  0  0  0  0999 V2000
   26.3830   14.4370   22.6660 C   0  0  0  0  0  0  0  0  0  0  0  0
   26.6670   15.0800   21.4620 C   0  0  0  0  0  0  0  0  0  0  0  0
   27.9020   15.6240   21.1910 C   0  0  0  0  0  0  0  0  0  0  0  0
   28.9180   15.5670   22.1370 C   0  0  0  0  0  0  0  0  0  0  0  0
   28.6550   14.9300   23.3370 C   0  0  0  0  0  0  0  0  0  0  0  0
   27.4210   14.3610   23.5820 C   0  0  0  0  0  0  0  0  0  0  0  0
   27.1980   13.7150   24.7550 F   0  0  0  0  0  0  0  0  0  0  0  0
   24.8190   11.6350   19.2230 C   0  0  0  0  0  0  0  0  0  0  0  0
   24.7840   12.3230   20.5290 N   0  0  0  0  0  0  0  0  0  0  0  0
   24.0150   13.4840   20.7670 C   0  0  0  0  0  0  0  0  0  0  0  0
   23.1910   13.8270   19.7290 N   0  0  0  0  0  0  0  0  0  0  0  0
   24.0560   14.1630   21.8720 N   0  0  0  0  0  0  0  0  0  0  0  0
   25.0080   13.8440   22.9340 C   0  0  0  0  0  0  0  0  0  0  0  0
   24.4010   14.5350   24.1580 C   0  0  0  0  0  0  0  0  0  0  0  0
   24.9960   12.3570   23.2140 C   0  0  0  0  0  0  0  0  0  0  0  0
   25.5540   11.4480   21.7950 S   0  0  0  0  0  0  0  0  0  0  0  0
   24.9200   10.1430   21.8640 O   0  0  0  0  0  0  0  0  0  0  0  0
   26.9480   11.6510   21.5530 O   0  0  0  0  0  0  0  0  0  0  0  0
   22.6140   14.6220   19.8000 H   0  0  0  0  0  0  0  0  0  0  0  0
   23.1730   13.2770   18.9120 H   0  0  0  0  0  0  0  0  0  0  0  0
   28.0550   16.2440   19.9450 N   0  0  0  0  0  0  0  0  0  0  0  0
   28.5920   17.4880   19.6670 C   0  0  0  0  0  0  0  0  0  0  0  0
   28.9110   18.3210   20.5050 O   0  0  0  0  0  0  0  0  0  0  0  0
   27.7410   15.7280   19.1670 H   0  0  0  0  0  0  0  0  0  0  0  0
   28.8110   17.7770   18.2290 C   0  0  0  0  0  0  0  0  0  0  0  0
   30.0980   17.9360   17.7440 C   0  0  0  0  0  0  0  0  0  0  0  0
   30.2440   18.2050   16.3940 C   0  0  0  0  0  0  0  0  0  0  0  0
   29.1270   18.3020   15.5870 C   0  0  0  0  0  0  0  0  0  0  0  0
   29.2190   18.5720   14.2740 F   0  0  0  0  0  0  0  0  0  0  0  0
   27.8880   18.1340   16.1630 C   0  0  0  0  0  0  0  0  0  0  0  0
   27.7150   17.8780   17.4700 N   0  0  0  0  0  0  0  0  0  0  0  0
  8  9  1  0
  9 10  1  0
 10 11  1  0
 10 12  2  0
 12 13  1  0
 13 14  1  0
 13  1  1  0
  1  2  2  0
  2  3  1  0
  3 21  1  0
 21 22  1  0
 22 23  2  0
 22 25  1  0
 25 26  2  0
 26 27  1  0
 27 28  2  0
 28 29  1  0
 28 30  1  0
 30 31  2  0
  3  4  2  0
  4  5  1  0
  5  6  2  0
  6  7  1  0
 13 15  1  0
 15 16  1  0
 16 17  2  0
 16 18  2  0
 16  9  1  0
  6  1  1  0
 31 25  1  0
 11 19  1  0
 11 20  1  0
 21 24  1  0
M  END
> <meeko>
{"is_sidechain": false}

> <source_group>
BACE1-476

> <source_system>
BACE1_verubecestat

> <source_run>
alternate_476_seed4409_ex32

> <source_seed>
4409

> <vina_pose_rank>
18

> <vina_affinity_kcal_mol>
-7.016

> <vina_rmsd_to_crystal_angstrom>
7.6451000000000002

> <minimizedAffinity>
-7.09630

> <CNNscore>
0.0519792438

> <CNNaffinity>
4.3401989937

> <CNN_VS>
0.2256002575

> <CNNaffinity_variance>
1.1435370445

$$$$
BACE1_verubecestat__alternate_476_seed4409_ex32__pose19


 31 33  0  0  0  0  0  0  0  0999 V2000
   24.4010   13.3580   22.8920 C   0  0  0  0  0  0  0  0  0  0  0  0
   25.6640   13.8880   23.1510 C   0  0  0  0  0  0  0  0  0  0  0  0
   26.1900   13.9500   24.4220 C   0  0  0  0  0  0  0  0  0  0  0  0
   25.4550   13.4970   25.5100 C   0  0  0  0  0  0  0  0  0  0  0  0
   24.2000   12.9650   25.2710 C   0  0  0  0  0  0  0  0  0  0  0  0
   23.6990   12.8800   23.9880 C   0  0  0  0  0  0  0  0  0  0  0  0
   22.4770   12.3260   23.7770 F   0  0  0  0  0  0  0  0  0  0  0  0
   27.1180   10.9620   19.8880 C   0  0  0  0  0  0  0  0  0  0  0  0
   25.9400   11.7370   20.3240 N   0  0  0  0  0  0  0  0  0  0  0  0
   25.7680   13.1080   20.0310 C   0  0  0  0  0  0  0  0  0  0  0  0
   26.7140   13.6170   19.1810 N   0  0  0  0  0  0  0  0  0  0  0  0
   24.7960   13.8300   20.4960 N   0  0  0  0  0  0  0  0  0  0  0  0
   23.8480   13.3010   21.4760 C   0  0  0  0  0  0  0  0  0  0  0  0
   22.6670   14.2690   21.3670 C   0  0  0  0  0  0  0  0  0  0  0  0
   23.3500   11.9420   21.0370 C   0  0  0  0  0  0  0  0  0  0  0  0
   24.6830   10.7700   20.9940 S   0  0  0  0  0  0  0  0  0  0  0  0
   24.3270    9.7760   19.9970 O   0  0  0  0  0  0  0  0  0  0  0  0
   25.1540   10.4590   22.3070 O   0  0  0  0  0  0  0  0  0  0  0  0
   26.6790   14.5650   18.9170 H   0  0  0  0  0  0  0  0  0  0  0  0
   27.4280   13.0350   18.8330 H   0  0  0  0  0  0  0  0  0  0  0  0
   27.4690   14.5090   24.5450 N   0  0  0  0  0  0  0  0  0  0  0  0
   28.6940   13.8730   24.4540 C   0  0  0  0  0  0  0  0  0  0  0  0
   28.8550   12.6620   24.3750 O   0  0  0  0  0  0  0  0  0  0  0  0
   27.4990   15.4770   24.7180 H   0  0  0  0  0  0  0  0  0  0  0  0
   29.8730   14.7720   24.4180 C   0  0  0  0  0  0  0  0  0  0  0  0
   30.3840   15.2890   25.5960 C   0  0  0  0  0  0  0  0  0  0  0  0
   31.4840   16.1240   25.5040 C   0  0  0  0  0  0  0  0  0  0  0  0
   32.0300   16.4080   24.2670 C   0  0  0  0  0  0  0  0  0  0  0  0
   33.0910   17.2210   24.1280 F   0  0  0  0  0  0  0  0  0  0  0  0
   31.4470   15.8510   23.1520 C   0  0  0  0  0  0  0  0  0  0  0  0
   30.3770   15.0420   23.2090 N   0  0  0  0  0  0  0  0  0  0  0  0
  8  9  1  0
  9 10  1  0
 10 11  1  0
 10 12  2  0
 12 13  1  0
 13 14  1  0
 13  1  1  0
  1  2  2  0
  2  3  1  0
  3 21  1  0
 21 22  1  0
 22 23  2  0
 22 25  1  0
 25 26  2  0
 26 27  1  0
 27 28  2  0
 28 29  1  0
 28 30  1  0
 30 31  2  0
  3  4  2  0
  4  5  1  0
  5  6  2  0
  6  7  1  0
 13 15  1  0
 15 16  1  0
 16 17  2  0
 16 18  2  0
 16  9  1  0
  6  1  1  0
 31 25  1  0
 11 19  1  0
 11 20  1  0
 21 24  1  0
M  END
> <meeko>
{"is_sidechain": false}

> <source_group>
BACE1-476

> <source_system>
BACE1_verubecestat

> <source_run>
alternate_476_seed4409_ex32

> <source_seed>
4409

> <vina_pose_rank>
19

> <vina_affinity_kcal_mol>
-6.992

> <vina_rmsd_to_crystal_angstrom>
5.9493999999999998

> <minimizedAffinity>
-6.85650

> <CNNscore>
0.0198914483

> <CNNaffinity>
4.4284086227

> <CNN_VS>
0.0880874619

> <CNNaffinity_variance>
0.8658113480

$$$$
BACE1_verubecestat__alternate_476_seed4409_ex32__pose20


 31 33  0  0  0  0  0  0  0  0999 V2000
   26.9730   14.5100   20.6150 C   0  0  0  0  0  0  0  0  0  0  0  0
   28.1850   15.1060   20.9610 C   0  0  0  0  0  0  0  0  0  0  0  0
   28.5010   16.3960   20.5990 C   0  0  0  0  0  0  0  0  0  0  0  0
   27.6150   17.1510   19.8420 C   0  0  0  0  0  0  0  0  0  0  0  0
   26.4060   16.5770   19.4910 C   0  0  0  0  0  0  0  0  0  0  0  0
   26.0880   15.2940   19.8900 C   0  0  0  0  0  0  0  0  0  0  0  0
   24.8830   14.7640   19.5570 F   0  0  0  0  0  0  0  0  0  0  0  0
   27.3330   13.7630   25.2470 C   0  0  0  0  0  0  0  0  0  0  0  0
   27.0480   13.4210   23.8400 N   0  0  0  0  0  0  0  0  0  0  0  0
   27.9390   12.6810   23.0310 C   0  0  0  0  0  0  0  0  0  0  0  0
   29.0170   12.1790   23.7090 N   0  0  0  0  0  0  0  0  0  0  0  0
   27.7550   12.4650   21.7650 N   0  0  0  0  0  0  0  0  0  0  0  0
   26.6510   13.0840   21.0330 C   0  0  0  0  0  0  0  0  0  0  0  0
   26.5410   12.2140   19.7780 C   0  0  0  0  0  0  0  0  0  0  0  0
   25.3590   12.9180   21.8020 C   0  0  0  0  0  0  0  0  0  0  0  0
   25.4370   13.7810   23.3510 S   0  0  0  0  0  0  0  0  0  0  0  0
   24.5460   13.0820   24.2600 O   0  0  0  0  0  0  0  0  0  0  0  0
   25.4440   15.1990   23.1660 O   0  0  0  0  0  0  0  0  0  0  0  0
   29.6950   11.6480   23.2310 H   0  0  0  0  0  0  0  0  0  0  0  0
   29.1150   12.3480   24.6740 H   0  0  0  0  0  0  0  0  0  0  0  0
   29.7530   16.8740   21.0090 N   0  0  0  0  0  0  0  0  0  0  0  0
   30.1940   17.1280   22.2960 C   0  0  0  0  0  0  0  0  0  0  0  0
   29.4940   17.0930   23.3000 O   0  0  0  0  0  0  0  0  0  0  0  0
   30.4010   17.0510   20.2900 H   0  0  0  0  0  0  0  0  0  0  0  0
   31.6410   17.4260   22.4220 C   0  0  0  0  0  0  0  0  0  0  0  0
   32.2050   17.5940   23.6750 C   0  0  0  0  0  0  0  0  0  0  0  0
   33.5590   17.8730   23.7340 C   0  0  0  0  0  0  0  0  0  0  0  0
   34.2930   17.9690   22.5670 C   0  0  0  0  0  0  0  0  0  0  0  0
   35.6080   18.2470   22.5750 F   0  0  0  0  0  0  0  0  0  0  0  0
   33.6410   17.7910   21.3680 C   0  0  0  0  0  0  0  0  0  0  0  0
   32.3280   17.5250   21.2790 N   0  0  0  0  0  0  0  0  0  0  0  0
  8  9  1  0
  9 10  1  0
 10 11  1  0
 10 12  2  0
 12 13  1  0
 13 14  1  0
 13  1  1  0
  1  2  2  0
  2  3  1  0
  3 21  1  0
 21 22  1  0
 22 23  2  0
 22 25  1  0
 25 26  2  0
 26 27  1  0
 27 28  2  0
 28 29  1  0
 28 30  1  0
 30 31  2  0
  3  4  2  0
  4  5  1  0
  5  6  2  0
  6  7  1  0
 13 15  1  0
 15 16  1  0
 16 17  2  0
 16 18  2  0
 16  9  1  0
  6  1  1  0
 31 25  1  0
 11 19  1  0
 11 20  1  0
 21 24  1  0
M  END
> <meeko>
{"is_sidechain": false}

> <source_group>
BACE1-476

> <source_system>
BACE1_verubecestat

> <source_run>
alternate_476_seed4409_ex32

> <source_seed>
4409

> <vina_pose_rank>
20

> <vina_affinity_kcal_mol>
-6.9850000000000003

> <vina_rmsd_to_crystal_angstrom>
6.9589999999999996

> <minimizedAffinity>
-6.89208

> <CNNscore>
0.0208726600

> <CNNaffinity>
3.7526905537

> <CNN_VS>
0.0783286318

> <CNNaffinity_variance>
1.1200302839

$$$$
