BACE1_verubecestat__canonical_obabel_seed1103_ex32__pose01
     RDKit          3D

 45 47  0  0  0  0  0  0  0  0999 V2000
   23.1420   11.6680   25.1230 C   0  0  0  0  0  0  0  0  0  0  0  0
   22.5220   11.1230   23.8980 N   0  0  0  0  0  0  0  0  0  0  0  0
   22.4520    9.7400   23.6200 C   0  0  0  0  0  0  0  0  0  0  0  0
   22.8700    8.9440   24.6520 N   0  0  0  0  0  0  0  0  0  0  0  0
   22.0100    9.2500   22.5030 N   0  0  0  0  0  0  0  0  0  0  0  0
   21.6560   10.1100   21.3740 C   0  0  2  0  0  0  0  0  0  0  0  0
   20.7770    9.1990   20.5130 C   0  0  0  0  0  0  0  0  0  0  0  0
   22.8760   10.5220   20.5660 C   0  0  0  0  0  0  0  0  0  0  0  0
   24.1600   10.1440   20.9570 C   0  0  0  0  0  0  0  0  0  0  0  0
   25.2820   10.5050   20.2460 C   0  0  0  0  0  0  0  0  0  0  0  0
   26.5130   10.0580   20.7460 N   0  0  0  0  0  0  0  0  0  0  0  0
   27.6240   10.8090   21.0830 C   0  0  0  0  0  0  0  0  0  0  0  0
   27.7550   12.0080   20.8720 O   0  0  0  0  0  0  0  0  0  0  0  0
   28.7000   10.0680   21.7850 C   0  0  0  0  0  0  0  0  0  0  0  0
   28.6490    8.6870   21.8650 C   0  0  0  0  0  0  0  0  0  0  0  0
   29.6780    8.0470   22.5330 C   0  0  0  0  0  0  0  0  0  0  0  0
   30.7050    8.7870   23.0850 C   0  0  0  0  0  0  0  0  0  0  0  0
   31.7200    8.2100   23.7500 F   0  0  0  0  0  0  0  0  0  0  0  0
   30.6650   10.1570   22.9580 C   0  0  0  0  0  0  0  0  0  0  0  0
   29.6770   10.8070   22.3210 N   0  0  0  0  0  0  0  0  0  0  0  0
   25.1670   11.2530   19.0810 C   0  0  0  0  0  0  0  0  0  0  0  0
   23.9000   11.6400   18.6800 C   0  0  0  0  0  0  0  0  0  0  0  0
   22.7860   11.2980   19.4200 C   0  0  0  0  0  0  0  0  0  0  0  0
   21.5570   11.7150   19.0200 F   0  0  0  0  0  0  0  0  0  0  0  0
   20.7840   11.2520   21.8450 C   0  0  0  0  0  0  0  0  0  0  0  0
   21.6730   12.2980   22.9690 S   0  0  0  0  0  0  0  0  0  0  0  0
   20.6840   12.9030   23.8430 O   0  0  0  0  0  0  0  0  0  0  0  0
   22.7100   13.0240   22.3060 O   0  0  0  0  0  0  0  0  0  0  0  0
   22.6499   11.2355   26.0066 H   0  0  0  0  0  0  0  0  0  0  0  0
   24.2118   11.4126   25.1373 H   0  0  0  0  0  0  0  0  0  0  0  0
   23.0259   12.7618   25.1373 H   0  0  0  0  0  0  0  0  0  0  0  0
   22.8590    7.9650   24.5540 H   0  0  0  0  0  0  0  0  0  0  0  0
   23.1820    9.3510   25.4930 H   0  0  0  0  0  0  0  0  0  0  0  0
   20.1615    8.5611   21.1643 H   0  0  0  0  0  0  0  0  0  0  0  0
   20.1226    9.8143   19.8780 H   0  0  0  0  0  0  0  0  0  0  0  0
   21.4153    8.5670   19.8780 H   0  0  0  0  0  0  0  0  0  0  0  0
   24.2805    9.5359   21.8657 H   0  0  0  0  0  0  0  0  0  0  0  0
   26.5960    9.0860   20.8730 H   0  0  0  0  0  0  0  0  0  0  0  0
   27.8214    8.1196   21.4144 H   0  0  0  0  0  0  0  0  0  0  0  0
   29.6780    6.9508   22.6242 H   0  0  0  0  0  0  0  0  0  0  0  0
   31.4812   10.7479   23.3993 H   0  0  0  0  0  0  0  0  0  0  0  0
   26.0559   11.5293   18.4950 H   0  0  0  0  0  0  0  0  0  0  0  0
   23.7791   12.2285   17.7585 H   0  0  0  0  0  0  0  0  0  0  0  0
   20.4651   11.8452   20.9753 H   0  0  0  0  0  0  0  0  0  0  0  0
   19.9085   10.8368   22.3657 H   0  0  0  0  0  0  0  0  0  0  0  0
  1  2  1  0
  2  3  1  0
  3  4  1  0
  3  5  2  0
  5  6  1  0
  6  7  1  6
  6  8  1  0
  8  9  2  0
  9 10  1  0
 10 11  1  0
 11 12  1  0
 12 13  2  0
 12 14  1  0
 14 15  2  0
 15 16  1  0
 16 17  2  0
 17 18  1  0
 17 19  1  0
 19 20  2  0
 10 21  2  0
 21 22  1  0
 22 23  2  0
 23 24  1  0
  6 25  1  0
 25 26  1  0
 26 27  2  0
 26 28  2  0
 26  2  1  0
 23  8  1  0
 20 14  1  0
  1 29  1  0
  1 30  1  0
  1 31  1  0
  4 32  1  0
  4 33  1  0
  7 34  1  0
  7 35  1  0
  7 36  1  0
  9 37  1  0
 11 38  1  0
 15 39  1  0
 16 40  1  0
 19 41  1  0
 21 42  1  0
 22 43  1  0
 25 44  1  0
 25 45  1  0
M  END
>  <meeko>  (1)
{"is_sidechain": false}

>  <source_group>  (1)
BACE1 canonical

>  <source_system>  (1)
BACE1_verubecestat

>  <source_run>  (1)
canonical_obabel_seed1103_ex32

>  <source_seed>  (1)
1103

>  <vina_pose_rank>  (1)
1

>  <vina_affinity_kcal_mol>  (1)
-9.5169999999999995

>  <vina_rmsd_to_crystal_angstrom>  (1)
0.9536

$$$$
BACE1_verubecestat__canonical_obabel_seed1103_ex32__pose02
     RDKit          3D

 45 47  0  0  0  0  0  0  0  0999 V2000
   16.9380   15.0840   25.3100 C   0  0  0  0  0  0  0  0  0  0  0  0
   17.9730   14.6640   26.2750 N   0  0  0  0  0  0  0  0  0  0  0  0
   19.2020   15.3430   26.4290 C   0  0  0  0  0  0  0  0  0  0  0  0
   19.2860   16.5090   25.7160 N   0  0  0  0  0  0  0  0  0  0  0  0
   20.1650   14.9270   27.1930 N   0  0  0  0  0  0  0  0  0  0  0  0
   20.1020   13.6350   27.8740 C   0  0  2  0  0  0  0  0  0  0  0  0
   21.1560   13.7770   28.9760 C   0  0  0  0  0  0  0  0  0  0  0  0
   20.5000   12.4880   26.9590 C   0  0  0  0  0  0  0  0  0  0  0  0
   20.9290   12.7230   25.6530 C   0  0  0  0  0  0  0  0  0  0  0  0
   21.2920   11.7040   24.8030 C   0  0  0  0  0  0  0  0  0  0  0  0
   21.7070   12.0770   23.5170 N   0  0  0  0  0  0  0  0  0  0  0  0
   22.9720   12.4490   23.1000 C   0  0  0  0  0  0  0  0  0  0  0  0
   23.9300   12.6400   23.8380 O   0  0  0  0  0  0  0  0  0  0  0  0
   23.1410   12.5830   21.6320 C   0  0  0  0  0  0  0  0  0  0  0  0
   22.0280   12.6420   20.8110 C   0  0  0  0  0  0  0  0  0  0  0  0
   22.2430   12.7640   19.4500 C   0  0  0  0  0  0  0  0  0  0  0  0
   23.5340   12.8260   18.9600 C   0  0  0  0  0  0  0  0  0  0  0  0
   23.7920   12.9350   17.6460 F   0  0  0  0  0  0  0  0  0  0  0  0
   24.5760   12.7530   19.8560 C   0  0  0  0  0  0  0  0  0  0  0  0
   24.3990   12.6280   21.1820 N   0  0  0  0  0  0  0  0  0  0  0  0
   21.2640   10.3840   25.2340 C   0  0  0  0  0  0  0  0  0  0  0  0
   20.8370   10.1310   26.5260 C   0  0  0  0  0  0  0  0  0  0  0  0
   20.4450   11.1610   27.3580 C   0  0  0  0  0  0  0  0  0  0  0  0
   20.0030   10.8830   28.6110 F   0  0  0  0  0  0  0  0  0  0  0  0
   18.7630   13.4740   28.5590 C   0  0  0  0  0  0  0  0  0  0  0  0
   17.4490   13.4400   27.3660 S   0  0  0  0  0  0  0  0  0  0  0  0
   16.2650   13.9420   28.0400 O   0  0  0  0  0  0  0  0  0  0  0  0
   17.4810   12.2460   26.5800 O   0  0  0  0  0  0  0  0  0  0  0  0
   16.0527   15.4433   25.8551 H   0  0  0  0  0  0  0  0  0  0  0  0
   17.3327   15.8931   24.6779 H   0  0  0  0  0  0  0  0  0  0  0  0
   16.6573   14.2286   24.6779 H   0  0  0  0  0  0  0  0  0  0  0  0
   20.1050   17.0540   25.7590 H   0  0  0  0  0  0  0  0  0  0  0  0
   18.5280   16.8030   25.1610 H   0  0  0  0  0  0  0  0  0  0  0  0
   20.6688   13.7114   29.9600 H   0  0  0  0  0  0  0  0  0  0  0  0
   21.8980   12.9707   28.8797 H   0  0  0  0  0  0  0  0  0  0  0  0
   21.6582   14.7509   28.8797 H   0  0  0  0  0  0  0  0  0  0  0  0
   20.9789   13.7600   25.2896 H   0  0  0  0  0  0  0  0  0  0  0  0
   21.0090   12.0730   22.8230 H   0  0  0  0  0  0  0  0  0  0  0  0
   21.0103   12.5937   21.2256 H   0  0  0  0  0  0  0  0  0  0  0  0
   21.3884   12.8116   18.7591 H   0  0  0  0  0  0  0  0  0  0  0  0
   25.6041   12.7993   19.4676 H   0  0  0  0  0  0  0  0  0  0  0  0
   21.5720    9.5641   24.5684 H   0  0  0  0  0  0  0  0  0  0  0  0
   20.8095    9.0952   26.8951 H   0  0  0  0  0  0  0  0  0  0  0  0
   18.7591   12.5324   29.1277 H   0  0  0  0  0  0  0  0  0  0  0  0
   18.6059   14.3279   29.2344 H   0  0  0  0  0  0  0  0  0  0  0  0
  1  2  1  0
  2  3  1  0
  3  4  1  0
  3  5  2  0
  5  6  1  0
  6  7  1  1
  6  8  1  0
  8  9  2  0
  9 10  1  0
 10 11  1  0
 11 12  1  0
 12 13  2  0
 12 14  1  0
 14 15  2  0
 15 16  1  0
 16 17  2  0
 17 18  1  0
 17 19  1  0
 19 20  2  0
 10 21  2  0
 21 22  1  0
 22 23  2  0
 23 24  1  0
  6 25  1  0
 25 26  1  0
 26 27  2  0
 26 28  2  0
 26  2  1  0
 23  8  1  0
 20 14  1  0
  1 29  1  0
  1 30  1  0
  1 31  1  0
  4 32  1  0
  4 33  1  0
  7 34  1  0
  7 35  1  0
  7 36  1  0
  9 37  1  0
 11 38  1  0
 15 39  1  0
 16 40  1  0
 19 41  1  0
 21 42  1  0
 22 43  1  0
 25 44  1  0
 25 45  1  0
M  END
>  <meeko>  (2)
{"is_sidechain": false}

>  <source_group>  (2)
BACE1 canonical

>  <source_system>  (2)
BACE1_verubecestat

>  <source_run>  (2)
canonical_obabel_seed1103_ex32

>  <source_seed>  (2)
1103

>  <vina_pose_rank>  (2)
2

>  <vina_affinity_kcal_mol>  (2)
-8.4760000000000009

>  <vina_rmsd_to_crystal_angstrom>  (2)
7.4511000000000003

$$$$
BACE1_verubecestat__canonical_obabel_seed1103_ex32__pose03
     RDKit          3D

 45 47  0  0  0  0  0  0  0  0999 V2000
   27.8160   11.9410   22.7560 C   0  0  0  0  0  0  0  0  0  0  0  0
   27.0570   12.3630   21.5630 N   0  0  0  0  0  0  0  0  0  0  0  0
   26.5770   13.6800   21.3820 C   0  0  0  0  0  0  0  0  0  0  0  0
   27.0080   14.5640   22.3340 N   0  0  0  0  0  0  0  0  0  0  0  0
   25.8170   14.0410   20.3950 N   0  0  0  0  0  0  0  0  0  0  0  0
   25.2860   13.0710   19.4380 C   0  0  2  0  0  0  0  0  0  0  0  0
   24.8840   13.9470   18.2480 C   0  0  0  0  0  0  0  0  0  0  0  0
   24.0480   12.3660   19.9690 C   0  0  0  0  0  0  0  0  0  0  0  0
   23.5750   12.6130   21.2570 C   0  0  0  0  0  0  0  0  0  0  0  0
   22.4590   11.9860   21.7640 C   0  0  0  0  0  0  0  0  0  0  0  0
   22.0880   12.3260   23.0720 N   0  0  0  0  0  0  0  0  0  0  0  0
   22.3400   11.6320   24.2420 C   0  0  0  0  0  0  0  0  0  0  0  0
   22.8330   10.5130   24.3050 O   0  0  0  0  0  0  0  0  0  0  0  0
   22.0030   12.3550   25.4920 C   0  0  0  0  0  0  0  0  0  0  0  0
   20.6970   12.7400   25.7370 C   0  0  0  0  0  0  0  0  0  0  0  0
   20.4390   13.4140   26.9180 C   0  0  0  0  0  0  0  0  0  0  0  0
   21.4700   13.6740   27.8000 C   0  0  0  0  0  0  0  0  0  0  0  0
   21.2690   14.3320   28.9550 F   0  0  0  0  0  0  0  0  0  0  0  0
   22.7380   13.2560   27.4650 C   0  0  0  0  0  0  0  0  0  0  0  0
   23.0190   12.6060   26.3240 N   0  0  0  0  0  0  0  0  0  0  0  0
   21.7420   11.0870   20.9850 C   0  0  0  0  0  0  0  0  0  0  0  0
   22.1990   10.8270   19.7050 C   0  0  0  0  0  0  0  0  0  0  0  0
   23.3380   11.4390   19.2210 C   0  0  0  0  0  0  0  0  0  0  0  0
   23.7820   11.1440   17.9720 F   0  0  0  0  0  0  0  0  0  0  0  0
   26.3910   12.1550   18.9610 C   0  0  0  0  0  0  0  0  0  0  0  0
   27.0280   11.1870   20.3060 S   0  0  0  0  0  0  0  0  0  0  0  0
   28.4070   10.8770   19.9760 O   0  0  0  0  0  0  0  0  0  0  0  0
   26.0740   10.2240   20.7610 O   0  0  0  0  0  0  0  0  0  0  0  0
   27.2718   12.2436   23.6628 H   0  0  0  0  0  0  0  0  0  0  0  0
   27.9346   10.8474   22.7473 H   0  0  0  0  0  0  0  0  0  0  0  0
   28.8075   12.4174   22.7473 H   0  0  0  0  0  0  0  0  0  0  0  0
   26.7270   15.5070   22.2930 H   0  0  0  0  0  0  0  0  0  0  0  0
   27.5990   14.2570   23.0590 H   0  0  0  0  0  0  0  0  0  0  0  0
   24.4516   14.8892   18.6158 H   0  0  0  0  0  0  0  0  0  0  0  0
   25.7721   14.1651   17.6367 H   0  0  0  0  0  0  0  0  0  0  0  0
   24.1395   13.4159   17.6367 H   0  0  0  0  0  0  0  0  0  0  0  0
   24.1123   13.3342   21.8904 H   0  0  0  0  0  0  0  0  0  0  0  0
   21.5840   13.1660   23.1700 H   0  0  0  0  0  0  0  0  0  0  0  0
   19.8931   12.5186   25.0195 H   0  0  0  0  0  0  0  0  0  0  0  0
   19.4158   13.7418   27.1537 H   0  0  0  0  0  0  0  0  0  0  0  0
   23.5603   13.4643   28.1653 H   0  0  0  0  0  0  0  0  0  0  0  0
   20.8377   10.5962   21.3740 H   0  0  0  0  0  0  0  0  0  0  0  0
   21.6473   10.1232   19.0645 H   0  0  0  0  0  0  0  0  0  0  0  0
   25.9930   11.4812   18.1879 H   0  0  0  0  0  0  0  0  0  0  0  0
   27.2061   12.7685   18.5497 H   0  0  0  0  0  0  0  0  0  0  0  0
  1  2  1  0
  2  3  1  0
  3  4  1  0
  3  5  2  0
  5  6  1  0
  6  7  1  6
  6  8  1  0
  8  9  2  0
  9 10  1  0
 10 11  1  0
 11 12  1  0
 12 13  2  0
 12 14  1  0
 14 15  2  0
 15 16  1  0
 16 17  2  0
 17 18  1  0
 17 19  1  0
 19 20  2  0
 10 21  2  0
 21 22  1  0
 22 23  2  0
 23 24  1  0
  6 25  1  0
 25 26  1  0
 26 27  2  0
 26 28  2  0
 26  2  1  0
 23  8  1  0
 20 14  1  0
  1 29  1  0
  1 30  1  0
  1 31  1  0
  4 32  1  0
  4 33  1  0
  7 34  1  0
  7 35  1  0
  7 36  1  0
  9 37  1  0
 11 38  1  0
 15 39  1  0
 16 40  1  0
 19 41  1  0
 21 42  1  0
 22 43  1  0
 25 44  1  0
 25 45  1  0
M  END
>  <meeko>  (3)
{"is_sidechain": false}

>  <source_group>  (3)
BACE1 canonical

>  <source_system>  (3)
BACE1_verubecestat

>  <source_run>  (3)
canonical_obabel_seed1103_ex32

>  <source_seed>  (3)
1103

>  <vina_pose_rank>  (3)
3

>  <vina_affinity_kcal_mol>  (3)
-8.3499999999999996

>  <vina_rmsd_to_crystal_angstrom>  (3)
7.0811999999999999

$$$$
BACE1_verubecestat__canonical_obabel_seed1103_ex32__pose04
     RDKit          3D

 45 47  0  0  0  0  0  0  0  0999 V2000
   26.9630   11.4810   21.5980 C   0  0  0  0  0  0  0  0  0  0  0  0
   25.7380   11.8560   20.8650 N   0  0  0  0  0  0  0  0  0  0  0  0
   25.1850   13.1560   20.9050 C   0  0  0  0  0  0  0  0  0  0  0  0
   25.9660   14.0720   21.5560 N   0  0  0  0  0  0  0  0  0  0  0  0
   24.0530   13.4750   20.3570 N   0  0  0  0  0  0  0  0  0  0  0  0
   23.1840   12.4700   19.7480 C   0  0  2  0  0  0  0  0  0  0  0  0
   22.2650   13.3080   18.8540 C   0  0  0  0  0  0  0  0  0  0  0  0
   22.3360   11.7460   20.7830 C   0  0  0  0  0  0  0  0  0  0  0  0
   22.3270   12.1510   22.1170 C   0  0  0  0  0  0  0  0  0  0  0  0
   21.5710   11.5140   23.0750 C   0  0  0  0  0  0  0  0  0  0  0  0
   21.6500   12.0220   24.3780 N   0  0  0  0  0  0  0  0  0  0  0  0
   20.6930   12.7330   25.0800 C   0  0  0  0  0  0  0  0  0  0  0  0
   19.6420   13.1510   24.6120 O   0  0  0  0  0  0  0  0  0  0  0  0
   20.9930   12.9500   26.5160 C   0  0  0  0  0  0  0  0  0  0  0  0
   21.5210   11.9200   27.2750 C   0  0  0  0  0  0  0  0  0  0  0  0
   21.7790   12.1770   28.6100 C   0  0  0  0  0  0  0  0  0  0  0  0
   21.5120   13.4270   29.1340 C   0  0  0  0  0  0  0  0  0  0  0  0
   21.7380   13.7210   30.4260 F   0  0  0  0  0  0  0  0  0  0  0  0
   20.9820   14.3860   28.3000 C   0  0  0  0  0  0  0  0  0  0  0  0
   20.7150   14.1640   27.0030 N   0  0  0  0  0  0  0  0  0  0  0  0
   20.7610   10.4390   22.7310 C   0  0  0  0  0  0  0  0  0  0  0  0
   20.7600   10.0210   21.4120 C   0  0  0  0  0  0  0  0  0  0  0  0
   21.5480   10.6500   20.4680 C   0  0  0  0  0  0  0  0  0  0  0  0
   21.5510   10.2020   19.1860 F   0  0  0  0  0  0  0  0  0  0  0  0
   23.9890   11.5700   18.8370 C   0  0  0  0  0  0  0  0  0  0  0  0
   25.1900   10.6510   19.7650 S   0  0  0  0  0  0  0  0  0  0  0  0
   26.2860   10.3670   18.8570 O   0  0  0  0  0  0  0  0  0  0  0  0
   24.5710    9.6750   20.6080 O   0  0  0  0  0  0  0  0  0  0  0  0
   26.7748   11.5386   22.6803 H   0  0  0  0  0  0  0  0  0  0  0  0
   27.2507   10.4537   21.3300 H   0  0  0  0  0  0  0  0  0  0  0  0
   27.7765   12.1713   21.3300 H   0  0  0  0  0  0  0  0  0  0  0  0
   25.6660   15.0070   21.6350 H   0  0  0  0  0  0  0  0  0  0  0  0
   26.8290   13.7980   21.9430 H   0  0  0  0  0  0  0  0  0  0  0  0
   21.5977   13.9165   19.4821 H   0  0  0  0  0  0  0  0  0  0  0  0
   22.8738   13.9683   18.2189 H   0  0  0  0  0  0  0  0  0  0  0  0
   21.6635   12.6410   18.2189 H   0  0  0  0  0  0  0  0  0  0  0  0
   22.9461   13.0102   22.4146 H   0  0  0  0  0  0  0  0  0  0  0  0
   22.4950   11.8520   24.8540 H   0  0  0  0  0  0  0  0  0  0  0  0
   21.7278   10.9340   26.8335 H   0  0  0  0  0  0  0  0  0  0  0  0
   22.1958   11.3876   29.2527 H   0  0  0  0  0  0  0  0  0  0  0  0
   20.7671   15.3813   28.7161 H   0  0  0  0  0  0  0  0  0  0  0  0
   20.1387    9.9349   23.4851 H   0  0  0  0  0  0  0  0  0  0  0  0
   20.1230    9.1762   21.1111 H   0  0  0  0  0  0  0  0  0  0  0  0
   23.3099   10.8683   18.3306 H   0  0  0  0  0  0  0  0  0  0  0  0
   24.5142   12.1932   18.0982 H   0  0  0  0  0  0  0  0  0  0  0  0
  1  2  1  0
  2  3  1  0
  3  4  1  0
  3  5  2  0
  5  6  1  0
  6  7  1  6
  6  8  1  0
  8  9  2  0
  9 10  1  0
 10 11  1  0
 11 12  1  0
 12 13  2  0
 12 14  1  0
 14 15  2  0
 15 16  1  0
 16 17  2  0
 17 18  1  0
 17 19  1  0
 19 20  2  0
 10 21  2  0
 21 22  1  0
 22 23  2  0
 23 24  1  0
  6 25  1  0
 25 26  1  0
 26 27  2  0
 26 28  2  0
 26  2  1  0
 23  8  1  0
 20 14  1  0
  1 29  1  0
  1 30  1  0
  1 31  1  0
  4 32  1  0
  4 33  1  0
  7 34  1  0
  7 35  1  0
  7 36  1  0
  9 37  1  0
 11 38  1  0
 15 39  1  0
 16 40  1  0
 19 41  1  0
 21 42  1  0
 22 43  1  0
 25 44  1  0
 25 45  1  0
M  END
>  <meeko>  (4)
{"is_sidechain": false}

>  <source_group>  (4)
BACE1 canonical

>  <source_system>  (4)
BACE1_verubecestat

>  <source_run>  (4)
canonical_obabel_seed1103_ex32

>  <source_seed>  (4)
1103

>  <vina_pose_rank>  (4)
4

>  <vina_affinity_kcal_mol>  (4)
-8.2919999999999998

>  <vina_rmsd_to_crystal_angstrom>  (4)
7.3476999999999997

$$$$
BACE1_verubecestat__canonical_obabel_seed1103_ex32__pose05
     RDKit          3D

 45 47  0  0  0  0  0  0  0  0999 V2000
   27.2050   15.7700   19.6340 C   0  0  0  0  0  0  0  0  0  0  0  0
   26.8280   14.3440   19.7090 N   0  0  0  0  0  0  0  0  0  0  0  0
   26.5310   13.5660   18.5680 C   0  0  0  0  0  0  0  0  0  0  0  0
   26.7700   14.2050   17.3810 N   0  0  0  0  0  0  0  0  0  0  0  0
   26.0940   12.3450   18.6210 N   0  0  0  0  0  0  0  0  0  0  0  0
   25.7520   11.7070   19.8910 C   0  0  2  0  0  0  0  0  0  0  0  0
   25.7580   10.2170   19.5380 C   0  0  0  0  0  0  0  0  0  0  0  0
   24.3610   12.0930   20.3680 C   0  0  0  0  0  0  0  0  0  0  0  0
   23.9890   11.9380   21.7030 C   0  0  0  0  0  0  0  0  0  0  0  0
   22.7360   12.2760   22.1620 C   0  0  0  0  0  0  0  0  0  0  0  0
   22.4910   12.0730   23.5260 N   0  0  0  0  0  0  0  0  0  0  0  0
   23.2270   12.5280   24.6060 C   0  0  0  0  0  0  0  0  0  0  0  0
   24.3120   13.0900   24.5320 O   0  0  0  0  0  0  0  0  0  0  0  0
   22.5950   12.3270   25.9330 C   0  0  0  0  0  0  0  0  0  0  0  0
   21.5180   11.4680   26.0620 C   0  0  0  0  0  0  0  0  0  0  0  0
   20.9660   11.3200   27.3220 C   0  0  0  0  0  0  0  0  0  0  0  0
   21.4970   12.0150   28.3920 C   0  0  0  0  0  0  0  0  0  0  0  0
   20.9890   11.9110   29.6320 F   0  0  0  0  0  0  0  0  0  0  0  0
   22.5660   12.8510   28.1620 C   0  0  0  0  0  0  0  0  0  0  0  0
   23.1190   13.0200   26.9500 N   0  0  0  0  0  0  0  0  0  0  0  0
   21.7910   12.8140   21.2970 C   0  0  0  0  0  0  0  0  0  0  0  0
   22.1420   12.9710   19.9680 C   0  0  0  0  0  0  0  0  0  0  0  0
   23.3920   12.5980   19.5150 C   0  0  0  0  0  0  0  0  0  0  0  0
   23.7010   12.7350   18.2000 F   0  0  0  0  0  0  0  0  0  0  0  0
   26.8590   11.9280   20.8980 C   0  0  0  0  0  0  0  0  0  0  0  0
   27.0300   13.6540   21.2730 S   0  0  0  0  0  0  0  0  0  0  0  0
   28.4150   13.8590   21.6580 O   0  0  0  0  0  0  0  0  0  0  0  0
   25.9090   14.1470   22.0110 O   0  0  0  0  0  0  0  0  0  0  0  0
   27.3121   16.1749   20.6511 H   0  0  0  0  0  0  0  0  0  0  0  0
   28.1602   15.8690   19.0975 H   0  0  0  0  0  0  0  0  0  0  0  0
   26.4236   16.3281   19.0975 H   0  0  0  0  0  0  0  0  0  0  0  0
   26.5930   13.7440   16.5300 H   0  0  0  0  0  0  0  0  0  0  0  0
   27.1190   15.1260   17.3790 H   0  0  0  0  0  0  0  0  0  0  0  0
   25.7604    9.6211   20.4626 H   0  0  0  0  0  0  0  0  0  0  0  0
   24.8608    9.9761   18.9489 H   0  0  0  0  0  0  0  0  0  0  0  0
   26.6571    9.9834   18.9489 H   0  0  0  0  0  0  0  0  0  0  0  0
   24.7228   11.5313   22.4144 H   0  0  0  0  0  0  0  0  0  0  0  0
   21.6940   11.5390   23.7450 H   0  0  0  0  0  0  0  0  0  0  0  0
   21.1157   10.9232   25.1952 H   0  0  0  0  0  0  0  0  0  0  0  0
   20.1062   10.6505   27.4718 H   0  0  0  0  0  0  0  0  0  0  0  0
   22.9877   13.4075   29.0120 H   0  0  0  0  0  0  0  0  0  0  0  0
   20.7939   13.1063   21.6580 H   0  0  0  0  0  0  0  0  0  0  0  0
   21.4150   13.3990   19.2621 H   0  0  0  0  0  0  0  0  0  0  0  0
   26.6219   11.3795   21.8216 H   0  0  0  0  0  0  0  0  0  0  0  0
   27.8045   11.5636   20.4700 H   0  0  0  0  0  0  0  0  0  0  0  0
  1  2  1  0
  2  3  1  0
  3  4  1  0
  3  5  2  0
  5  6  1  0
  6  7  1  6
  6  8  1  0
  8  9  2  0
  9 10  1  0
 10 11  1  0
 11 12  1  0
 12 13  2  0
 12 14  1  0
 14 15  2  0
 15 16  1  0
 16 17  2  0
 17 18  1  0
 17 19  1  0
 19 20  2  0
 10 21  2  0
 21 22  1  0
 22 23  2  0
 23 24  1  0
  6 25  1  0
 25 26  1  0
 26 27  2  0
 26 28  2  0
 26  2  1  0
 23  8  1  0
 20 14  1  0
  1 29  1  0
  1 30  1  0
  1 31  1  0
  4 32  1  0
  4 33  1  0
  7 34  1  0
  7 35  1  0
  7 36  1  0
  9 37  1  0
 11 38  1  0
 15 39  1  0
 16 40  1  0
 19 41  1  0
 21 42  1  0
 22 43  1  0
 25 44  1  0
 25 45  1  0
M  END
>  <meeko>  (5)
{"is_sidechain": false}

>  <source_group>  (5)
BACE1 canonical

>  <source_system>  (5)
BACE1_verubecestat

>  <source_run>  (5)
canonical_obabel_seed1103_ex32

>  <source_seed>  (5)
1103

>  <vina_pose_rank>  (5)
5

>  <vina_affinity_kcal_mol>  (5)
-8.1910000000000007

>  <vina_rmsd_to_crystal_angstrom>  (5)
7.1409000000000002

$$$$
BACE1_verubecestat__canonical_obabel_seed1103_ex32__pose06
     RDKit          3D

 45 47  0  0  0  0  0  0  0  0999 V2000
   28.5200   13.7440   24.2150 C   0  0  0  0  0  0  0  0  0  0  0  0
   28.1040   13.8500   22.8020 N   0  0  0  0  0  0  0  0  0  0  0  0
   27.2640   14.8790   22.3220 C   0  0  0  0  0  0  0  0  0  0  0  0
   26.9940   15.8520   23.2460 N   0  0  0  0  0  0  0  0  0  0  0  0
   26.8010   14.9260   21.1110 N   0  0  0  0  0  0  0  0  0  0  0  0
   27.0170   13.8350   20.1630 C   0  0  2  0  0  0  0  0  0  0  0  0
   26.7440   14.4970   18.8090 C   0  0  0  0  0  0  0  0  0  0  0  0
   26.0250   12.7000   20.3630 C   0  0  0  0  0  0  0  0  0  0  0  0
   25.1190   12.7140   21.4230 C   0  0  0  0  0  0  0  0  0  0  0  0
   24.2120   11.7000   21.6300 C   0  0  0  0  0  0  0  0  0  0  0  0
   23.3560   11.8380   22.7300 N   0  0  0  0  0  0  0  0  0  0  0  0
   22.0860   12.3860   22.7650 C   0  0  0  0  0  0  0  0  0  0  0  0
   21.5450   12.9690   21.8340 O   0  0  0  0  0  0  0  0  0  0  0  0
   21.3490   12.1970   24.0380 C   0  0  0  0  0  0  0  0  0  0  0  0
   20.1230   11.5540   24.0370 C   0  0  0  0  0  0  0  0  0  0  0  0
   19.4790   11.4060   25.2530 C   0  0  0  0  0  0  0  0  0  0  0  0
   20.0650   11.8900   26.4060 C   0  0  0  0  0  0  0  0  0  0  0  0
   19.4730   11.7780   27.6070 F   0  0  0  0  0  0  0  0  0  0  0  0
   21.2850   12.5210   26.3040 C   0  0  0  0  0  0  0  0  0  0  0  0
   21.9320   12.6840   25.1380 N   0  0  0  0  0  0  0  0  0  0  0  0
   24.1550   10.6190   20.7590 C   0  0  0  0  0  0  0  0  0  0  0  0
   25.0490   10.5860   19.7040 C   0  0  0  0  0  0  0  0  0  0  0  0
   25.9750   11.5950   19.5270 C   0  0  0  0  0  0  0  0  0  0  0  0
   26.8600   11.5250   18.5000 F   0  0  0  0  0  0  0  0  0  0  0  0
   28.4720   13.4220   20.1680 C   0  0  0  0  0  0  0  0  0  0  0  0
   28.9310   12.7650   21.7520 S   0  0  0  0  0  0  0  0  0  0  0  0
   30.3530   13.0160   21.9080 O   0  0  0  0  0  0  0  0  0  0  0  0
   28.3060   11.5040   22.0010 O   0  0  0  0  0  0  0  0  0  0  0  0
   27.6617   13.9627   24.8673 H   0  0  0  0  0  0  0  0  0  0  0  0
   28.8823   12.7248   24.4151 H   0  0  0  0  0  0  0  0  0  0  0  0
   29.3258   14.4655   24.4151 H   0  0  0  0  0  0  0  0  0  0  0  0
   26.4170   16.6130   23.0050 H   0  0  0  0  0  0  0  0  0  0  0  0
   27.3780   15.7920   24.1510 H   0  0  0  0  0  0  0  0  0  0  0  0
   26.3291   15.5030   18.9697 H   0  0  0  0  0  0  0  0  0  0  0  0
   27.6837   14.5741   18.2424 H   0  0  0  0  0  0  0  0  0  0  0  0
   26.0231   13.8893   18.2424 H   0  0  0  0  0  0  0  0  0  0  0  0
   25.1297   13.5661   22.1186 H   0  0  0  0  0  0  0  0  0  0  0  0
   23.7030   11.5020   23.5880 H   0  0  0  0  0  0  0  0  0  0  0  0
   19.6777   11.1752   23.1052 H   0  0  0  0  0  0  0  0  0  0  0  0
   18.5017   10.9035   25.3010 H   0  0  0  0  0  0  0  0  0  0  0  0
   21.7518   12.9100   27.2209 H   0  0  0  0  0  0  0  0  0  0  0  0
   23.4205    9.8131   20.9041 H   0  0  0  0  0  0  0  0  0  0  0  0
   25.0219    9.7444   18.9962 H   0  0  0  0  0  0  0  0  0  0  0  0
   28.6320   12.6531   19.3978 H   0  0  0  0  0  0  0  0  0  0  0  0
   29.0918   14.3062   19.9583 H   0  0  0  0  0  0  0  0  0  0  0  0
  1  2  1  0
  2  3  1  0
  3  4  1  0
  3  5  2  0
  5  6  1  0
  6  7  1  6
  6  8  1  0
  8  9  2  0
  9 10  1  0
 10 11  1  0
 11 12  1  0
 12 13  2  0
 12 14  1  0
 14 15  2  0
 15 16  1  0
 16 17  2  0
 17 18  1  0
 17 19  1  0
 19 20  2  0
 10 21  2  0
 21 22  1  0
 22 23  2  0
 23 24  1  0
  6 25  1  0
 25 26  1  0
 26 27  2  0
 26 28  2  0
 26  2  1  0
 23  8  1  0
 20 14  1  0
  1 29  1  0
  1 30  1  0
  1 31  1  0
  4 32  1  0
  4 33  1  0
  7 34  1  0
  7 35  1  0
  7 36  1  0
  9 37  1  0
 11 38  1  0
 15 39  1  0
 16 40  1  0
 19 41  1  0
 21 42  1  0
 22 43  1  0
 25 44  1  0
 25 45  1  0
M  END
>  <meeko>  (6)
{"is_sidechain": false}

>  <source_group>  (6)
BACE1 canonical

>  <source_system>  (6)
BACE1_verubecestat

>  <source_run>  (6)
canonical_obabel_seed1103_ex32

>  <source_seed>  (6)
1103

>  <vina_pose_rank>  (6)
6

>  <vina_affinity_kcal_mol>  (6)
-8.0039999999999996

>  <vina_rmsd_to_crystal_angstrom>  (6)
7.5697999999999999

$$$$
BACE1_verubecestat__canonical_obabel_seed1103_ex32__pose07
     RDKit          3D

 45 47  0  0  0  0  0  0  0  0999 V2000
   21.1770    9.5440   23.3250 C   0  0  0  0  0  0  0  0  0  0  0  0
   21.5540   10.5240   22.2880 N   0  0  0  0  0  0  0  0  0  0  0  0
   21.5590   10.2210   20.9080 C   0  0  0  0  0  0  0  0  0  0  0  0
   21.0390    8.9910   20.6080 N   0  0  0  0  0  0  0  0  0  0  0  0
   21.9890   11.0330   19.9920 N   0  0  0  0  0  0  0  0  0  0  0  0
   22.6280   12.3040   20.3310 C   0  0  2  0  0  0  0  0  0  0  0  0
   22.5290   13.0970   19.0250 C   0  0  0  0  0  0  0  0  0  0  0  0
   24.0960   12.1270   20.6870 C   0  0  0  0  0  0  0  0  0  0  0  0
   24.6990   12.9140   21.6670 C   0  0  0  0  0  0  0  0  0  0  0  0
   26.0260   12.7770   22.0080 C   0  0  0  0  0  0  0  0  0  0  0  0
   26.5070   13.6290   23.0110 N   0  0  0  0  0  0  0  0  0  0  0  0
   26.2690   13.5700   24.3720 C   0  0  0  0  0  0  0  0  0  0  0  0
   25.4720   12.8160   24.9160 O   0  0  0  0  0  0  0  0  0  0  0  0
   27.0910   14.4860   25.1990 C   0  0  0  0  0  0  0  0  0  0  0  0
   26.5220   15.6260   25.7410 C   0  0  0  0  0  0  0  0  0  0  0  0
   27.3360   16.4470   26.5020 C   0  0  0  0  0  0  0  0  0  0  0  0
   28.6610   16.1100   26.6990 C   0  0  0  0  0  0  0  0  0  0  0  0
   29.4910   16.8800   27.4230 F   0  0  0  0  0  0  0  0  0  0  0  0
   29.1370   14.9580   26.1140 C   0  0  0  0  0  0  0  0  0  0  0  0
   28.3730   14.1460   25.3650 N   0  0  0  0  0  0  0  0  0  0  0  0
   26.8160   11.8170   21.3890 C   0  0  0  0  0  0  0  0  0  0  0  0
   26.2350   11.0290   20.4110 C   0  0  0  0  0  0  0  0  0  0  0  0
   24.9110   11.1990   20.0570 C   0  0  0  0  0  0  0  0  0  0  0  0
   24.3730   10.4320   19.0740 F   0  0  0  0  0  0  0  0  0  0  0  0
   21.8030   13.0410   21.3620 C   0  0  0  0  0  0  0  0  0  0  0  0
   21.7380   12.1290   22.8830 S   0  0  0  0  0  0  0  0  0  0  0  0
   20.4910   12.4930   23.5310 O   0  0  0  0  0  0  0  0  0  0  0  0
   23.0080   12.1060   23.5390 O   0  0  0  0  0  0  0  0  0  0  0  0
   21.3450    9.9807   24.3205 H   0  0  0  0  0  0  0  0  0  0  0  0
   20.1142    9.2829   23.2137 H   0  0  0  0  0  0  0  0  0  0  0  0
   21.7908    8.6380   23.2137 H   0  0  0  0  0  0  0  0  0  0  0  0
   20.9990    8.6890   19.6710 H   0  0  0  0  0  0  0  0  0  0  0  0
   20.7050    8.4080   21.3280 H   0  0  0  0  0  0  0  0  0  0  0  0
   22.3957   14.1647   19.2536 H   0  0  0  0  0  0  0  0  0  0  0  0
   23.4513   12.9593   18.4416 H   0  0  0  0  0  0  0  0  0  0  0  0
   21.6689   12.7367   18.4416 H   0  0  0  0  0  0  0  0  0  0  0  0
   24.0933   13.6713   22.1863 H   0  0  0  0  0  0  0  0  0  0  0  0
   27.0900   14.3630   22.7080 H   0  0  0  0  0  0  0  0  0  0  0  0
   25.4626   15.8701   25.5731 H   0  0  0  0  0  0  0  0  0  0  0  0
   26.9286   17.3659   26.9489 H   0  0  0  0  0  0  0  0  0  0  0  0
   30.1928   14.6900   26.2673 H   0  0  0  0  0  0  0  0  0  0  0  0
   27.8721   11.6869   21.6678 H   0  0  0  0  0  0  0  0  0  0  0  0
   26.8360   10.2567   19.9087 H   0  0  0  0  0  0  0  0  0  0  0  0
   22.2562   14.0254   21.5504 H   0  0  0  0  0  0  0  0  0  0  0  0
   20.7795   13.1592   20.9768 H   0  0  0  0  0  0  0  0  0  0  0  0
  1  2  1  0
  2  3  1  0
  3  4  1  0
  3  5  2  0
  5  6  1  0
  6  7  1  6
  6  8  1  0
  8  9  2  0
  9 10  1  0
 10 11  1  0
 11 12  1  0
 12 13  2  0
 12 14  1  0
 14 15  2  0
 15 16  1  0
 16 17  2  0
 17 18  1  0
 17 19  1  0
 19 20  2  0
 10 21  2  0
 21 22  1  0
 22 23  2  0
 23 24  1  0
  6 25  1  0
 25 26  1  0
 26 27  2  0
 26 28  2  0
 26  2  1  0
 23  8  1  0
 20 14  1  0
  1 29  1  0
  1 30  1  0
  1 31  1  0
  4 32  1  0
  4 33  1  0
  7 34  1  0
  7 35  1  0
  7 36  1  0
  9 37  1  0
 11 38  1  0
 15 39  1  0
 16 40  1  0
 19 41  1  0
 21 42  1  0
 22 43  1  0
 25 44  1  0
 25 45  1  0
M  END
>  <meeko>  (7)
{"is_sidechain": false}

>  <source_group>  (7)
BACE1 canonical

>  <source_system>  (7)
BACE1_verubecestat

>  <source_run>  (7)
canonical_obabel_seed1103_ex32

>  <source_seed>  (7)
1103

>  <vina_pose_rank>  (7)
7

>  <vina_affinity_kcal_mol>  (7)
-7.9450000000000003

>  <vina_rmsd_to_crystal_angstrom>  (7)
4.8042999999999996

$$$$
BACE1_verubecestat__canonical_obabel_seed1103_ex32__pose08
     RDKit          3D

 45 47  0  0  0  0  0  0  0  0999 V2000
   21.8040   12.7160   21.9450 C   0  0  0  0  0  0  0  0  0  0  0  0
   22.8740   12.0410   21.1860 N   0  0  0  0  0  0  0  0  0  0  0  0
   23.6920   11.0310   21.7400 C   0  0  0  0  0  0  0  0  0  0  0  0
   23.3060   10.6280   22.9900 N   0  0  0  0  0  0  0  0  0  0  0  0
   24.7050   10.5040   21.1250 N   0  0  0  0  0  0  0  0  0  0  0  0
   25.1650   11.0080   19.8310 C   0  0  2  0  0  0  0  0  0  0  0  0
   26.0090    9.8490   19.2920 C   0  0  0  0  0  0  0  0  0  0  0  0
   26.0520   12.2340   19.9790 C   0  0  0  0  0  0  0  0  0  0  0  0
   26.3480   12.7620   21.2350 C   0  0  0  0  0  0  0  0  0  0  0  0
   27.1460   13.8720   21.3980 C   0  0  0  0  0  0  0  0  0  0  0  0
   27.3660   14.2980   22.7140 N   0  0  0  0  0  0  0  0  0  0  0  0
   28.2960   13.8260   23.6230 C   0  0  0  0  0  0  0  0  0  0  0  0
   29.0080   12.8440   23.4570 O   0  0  0  0  0  0  0  0  0  0  0  0
   28.4280   14.6240   24.8670 C   0  0  0  0  0  0  0  0  0  0  0  0
   27.3520   15.3600   25.3320 C   0  0  0  0  0  0  0  0  0  0  0  0
   27.5310   16.0880   26.4950 C   0  0  0  0  0  0  0  0  0  0  0  0
   28.7500   16.0560   27.1460 C   0  0  0  0  0  0  0  0  0  0  0  0
   28.9730   16.7530   28.2730 F   0  0  0  0  0  0  0  0  0  0  0  0
   29.7620   15.2980   26.6020 C   0  0  0  0  0  0  0  0  0  0  0  0
   29.6190   14.5860   25.4710 N   0  0  0  0  0  0  0  0  0  0  0  0
   27.7100   14.5000   20.2950 C   0  0  0  0  0  0  0  0  0  0  0  0
   27.4250   13.9920   19.0400 C   0  0  0  0  0  0  0  0  0  0  0  0
   26.5970   12.8970   18.8900 C   0  0  0  0  0  0  0  0  0  0  0  0
   26.3090   12.4360   17.6460 F   0  0  0  0  0  0  0  0  0  0  0  0
   23.9910   11.1760   18.8920 C   0  0  0  0  0  0  0  0  0  0  0  0
   22.8700   12.4090   19.5040 S   0  0  0  0  0  0  0  0  0  0  0  0
   21.5560   12.0640   18.9920 O   0  0  0  0  0  0  0  0  0  0  0  0
   23.4400   13.7180   19.4390 O   0  0  0  0  0  0  0  0  0  0  0  0
   21.9893   12.5991   23.0230 H   0  0  0  0  0  0  0  0  0  0  0  0
   21.7916   13.7857   21.6890 H   0  0  0  0  0  0  0  0  0  0  0  0
   20.8332   12.2665   21.6890 H   0  0  0  0  0  0  0  0  0  0  0  0
   23.8140    9.9280   23.4600 H   0  0  0  0  0  0  0  0  0  0  0  0
   22.5210   11.0380   23.4200 H   0  0  0  0  0  0  0  0  0  0  0  0
   26.4259    9.2765   20.1337 H   0  0  0  0  0  0  0  0  0  0  0  0
   25.3776    9.1903   18.6776 H   0  0  0  0  0  0  0  0  0  0  0  0
   26.8297   10.2478   18.6776 H   0  0  0  0  0  0  0  0  0  0  0  0
   25.9290   12.2743   22.1275 H   0  0  0  0  0  0  0  0  0  0  0  0
   26.7860   15.0270   23.0320 H   0  0  0  0  0  0  0  0  0  0  0  0
   26.3908   15.3660   24.7972 H   0  0  0  0  0  0  0  0  0  0  0  0
   26.7051   16.6908   26.9006 H   0  0  0  0  0  0  0  0  0  0  0  0
   30.7336   15.2738   27.1172 H   0  0  0  0  0  0  0  0  0  0  0  0
   28.3644   15.3759   20.4157 H   0  0  0  0  0  0  0  0  0  0  0  0
   27.8638   14.4666   18.1499 H   0  0  0  0  0  0  0  0  0  0  0  0
   24.3609   11.4834   17.9027 H   0  0  0  0  0  0  0  0  0  0  0  0
   23.4567   10.2173   18.8185 H   0  0  0  0  0  0  0  0  0  0  0  0
  1  2  1  0
  2  3  1  0
  3  4  1  0
  3  5  2  0
  5  6  1  0
  6  7  1  6
  6  8  1  0
  8  9  2  0
  9 10  1  0
 10 11  1  0
 11 12  1  0
 12 13  2  0
 12 14  1  0
 14 15  2  0
 15 16  1  0
 16 17  2  0
 17 18  1  0
 17 19  1  0
 19 20  2  0
 10 21  2  0
 21 22  1  0
 22 23  2  0
 23 24  1  0
  6 25  1  0
 25 26  1  0
 26 27  2  0
 26 28  2  0
 26  2  1  0
 23  8  1  0
 20 14  1  0
  1 29  1  0
  1 30  1  0
  1 31  1  0
  4 32  1  0
  4 33  1  0
  7 34  1  0
  7 35  1  0
  7 36  1  0
  9 37  1  0
 11 38  1  0
 15 39  1  0
 16 40  1  0
 19 41  1  0
 21 42  1  0
 22 43  1  0
 25 44  1  0
 25 45  1  0
M  END
>  <meeko>  (8)
{"is_sidechain": false}

>  <source_group>  (8)
BACE1 canonical

>  <source_system>  (8)
BACE1_verubecestat

>  <source_run>  (8)
canonical_obabel_seed1103_ex32

>  <source_seed>  (8)
1103

>  <vina_pose_rank>  (8)
8

>  <vina_affinity_kcal_mol>  (8)
-7.8449999999999998

>  <vina_rmsd_to_crystal_angstrom>  (8)
5.2885

$$$$
BACE1_verubecestat__canonical_obabel_seed1103_ex32__pose09
     RDKit          3D

 45 47  0  0  0  0  0  0  0  0999 V2000
   21.7320   12.0030   29.1110 C   0  0  0  0  0  0  0  0  0  0  0  0
   20.7280   12.5040   28.1520 N   0  0  0  0  0  0  0  0  0  0  0  0
   19.3550   12.1780   28.2340 C   0  0  0  0  0  0  0  0  0  0  0  0
   19.0150   11.4840   29.3640 N   0  0  0  0  0  0  0  0  0  0  0  0
   18.4790   12.5200   27.3410 N   0  0  0  0  0  0  0  0  0  0  0  0
   18.8680   13.1770   26.0940 C   0  0  2  0  0  0  0  0  0  0  0  0
   17.5540   13.7960   25.6080 C   0  0  0  0  0  0  0  0  0  0  0  0
   19.3560   12.1810   25.0530 C   0  0  0  0  0  0  0  0  0  0  0  0
   20.2990   12.5470   24.0940 C   0  0  0  0  0  0  0  0  0  0  0  0
   20.7570   11.6690   23.1380 C   0  0  0  0  0  0  0  0  0  0  0  0
   21.7070   12.1630   22.2350 N   0  0  0  0  0  0  0  0  0  0  0  0
   22.5680   11.4490   21.4200 C   0  0  0  0  0  0  0  0  0  0  0  0
   22.7270   10.2350   21.4560 O   0  0  0  0  0  0  0  0  0  0  0  0
   23.3080   12.2550   20.4200 C   0  0  0  0  0  0  0  0  0  0  0  0
   22.6900   12.6270   19.2380 C   0  0  0  0  0  0  0  0  0  0  0  0
   23.4270   13.3770   18.3390 C   0  0  0  0  0  0  0  0  0  0  0  0
   24.7290   13.7290   18.6410 C   0  0  0  0  0  0  0  0  0  0  0  0
   25.4860   14.4480   17.7960 F   0  0  0  0  0  0  0  0  0  0  0  0
   25.2580   13.3060   19.8400 C   0  0  0  0  0  0  0  0  0  0  0  0
   24.5690   12.5730   20.7290 N   0  0  0  0  0  0  0  0  0  0  0  0
   20.3000   10.3570   23.1120 C   0  0  0  0  0  0  0  0  0  0  0  0
   19.3610    9.9770   24.0550 C   0  0  0  0  0  0  0  0  0  0  0  0
   18.8870   10.8780   24.9870 C   0  0  0  0  0  0  0  0  0  0  0  0
   17.9440   10.4880   25.8820 F   0  0  0  0  0  0  0  0  0  0  0  0
   19.8160   14.3190   26.3830 C   0  0  0  0  0  0  0  0  0  0  0  0
   21.3290   13.7150   27.0860 S   0  0  0  0  0  0  0  0  0  0  0  0
   21.8600   14.7860   27.9090 O   0  0  0  0  0  0  0  0  0  0  0  0
   22.0980   12.9780   26.1320 O   0  0  0  0  0  0  0  0  0  0  0  0
   21.3785   12.1794   30.1376 H   0  0  0  0  0  0  0  0  0  0  0  0
   21.8818   10.9245   28.9550 H   0  0  0  0  0  0  0  0  0  0  0  0
   22.6839   12.5318   28.9550 H   0  0  0  0  0  0  0  0  0  0  0  0
   18.0810   11.2120   29.5110 H   0  0  0  0  0  0  0  0  0  0  0  0
   19.7050   11.2580   30.0290 H   0  0  0  0  0  0  0  0  0  0  0  0
   16.9417   14.0844   26.4752 H   0  0  0  0  0  0  0  0  0  0  0  0
   17.7710   14.6866   24.9999 H   0  0  0  0  0  0  0  0  0  0  0  0
   17.0055   13.0616   24.9999 H   0  0  0  0  0  0  0  0  0  0  0  0
   20.6913   13.5746   24.1015 H   0  0  0  0  0  0  0  0  0  0  0  0
   21.7700   13.1430   22.1710 H   0  0  0  0  0  0  0  0  0  0  0  0
   21.6512   12.3368   19.0218 H   0  0  0  0  0  0  0  0  0  0  0  0
   22.9777   13.6925   17.3858 H   0  0  0  0  0  0  0  0  0  0  0  0
   26.2952   13.5820   20.0810 H   0  0  0  0  0  0  0  0  0  0  0  0
   20.6734    9.6418   22.3643 H   0  0  0  0  0  0  0  0  0  0  0  0
   18.9872    8.9425   24.0618 H   0  0  0  0  0  0  0  0  0  0  0  0
   20.0397   14.8488   25.4453 H   0  0  0  0  0  0  0  0  0  0  0  0
   19.3392   15.0012   27.1022 H   0  0  0  0  0  0  0  0  0  0  0  0
  1  2  1  0
  2  3  1  0
  3  4  1  0
  3  5  2  0
  5  6  1  0
  6  7  1  6
  6  8  1  0
  8  9  2  0
  9 10  1  0
 10 11  1  0
 11 12  1  0
 12 13  2  0
 12 14  1  0
 14 15  2  0
 15 16  1  0
 16 17  2  0
 17 18  1  0
 17 19  1  0
 19 20  2  0
 10 21  2  0
 21 22  1  0
 22 23  2  0
 23 24  1  0
  6 25  1  0
 25 26  1  0
 26 27  2  0
 26 28  2  0
 26  2  1  0
 23  8  1  0
 20 14  1  0
  1 29  1  0
  1 30  1  0
  1 31  1  0
  4 32  1  0
  4 33  1  0
  7 34  1  0
  7 35  1  0
  7 36  1  0
  9 37  1  0
 11 38  1  0
 15 39  1  0
 16 40  1  0
 19 41  1  0
 21 42  1  0
 22 43  1  0
 25 44  1  0
 25 45  1  0
M  END
>  <meeko>  (9)
{"is_sidechain": false}

>  <source_group>  (9)
BACE1 canonical

>  <source_system>  (9)
BACE1_verubecestat

>  <source_run>  (9)
canonical_obabel_seed1103_ex32

>  <source_seed>  (9)
1103

>  <vina_pose_rank>  (9)
9

>  <vina_affinity_kcal_mol>  (9)
-7.7759999999999998

>  <vina_rmsd_to_crystal_angstrom>  (9)
6.3902999999999999

$$$$
BACE1_verubecestat__canonical_obabel_seed1103_ex32__pose10
     RDKit          3D

 45 47  0  0  0  0  0  0  0  0999 V2000
   15.5630   13.2830   25.8610 C   0  0  0  0  0  0  0  0  0  0  0  0
   16.7180   14.0580   26.3560 N   0  0  0  0  0  0  0  0  0  0  0  0
   17.3340   15.0860   25.6080 C   0  0  0  0  0  0  0  0  0  0  0  0
   16.6720   15.4040   24.4520 N   0  0  0  0  0  0  0  0  0  0  0  0
   18.4130   15.7010   25.9800 N   0  0  0  0  0  0  0  0  0  0  0  0
   19.1630   15.2900   27.1660 C   0  0  2  0  0  0  0  0  0  0  0  0
   20.0180   16.5210   27.4760 C   0  0  0  0  0  0  0  0  0  0  0  0
   20.0820   14.1130   26.8800 C   0  0  0  0  0  0  0  0  0  0  0  0
   20.0520   13.4580   25.6500 C   0  0  0  0  0  0  0  0  0  0  0  0
   20.8700   12.3880   25.3650 C   0  0  0  0  0  0  0  0  0  0  0  0
   20.7420   11.8220   24.0900 N   0  0  0  0  0  0  0  0  0  0  0  0
   21.5980   11.9390   23.0090 C   0  0  0  0  0  0  0  0  0  0  0  0
   22.5690   12.6830   22.9580 O   0  0  0  0  0  0  0  0  0  0  0  0
   21.2960   11.0490   21.8620 C   0  0  0  0  0  0  0  0  0  0  0  0
   21.7250   11.3900   20.5910 C   0  0  0  0  0  0  0  0  0  0  0  0
   21.4130   10.5240   19.5580 C   0  0  0  0  0  0  0  0  0  0  0  0
   20.7030    9.3680   19.8190 C   0  0  0  0  0  0  0  0  0  0  0  0
   20.3700    8.5020   18.8470 F   0  0  0  0  0  0  0  0  0  0  0  0
   20.3150    9.1180   21.1160 C   0  0  0  0  0  0  0  0  0  0  0  0
   20.5970    9.9420   22.1380 N   0  0  0  0  0  0  0  0  0  0  0  0
   21.7860   11.9330   26.3050 C   0  0  0  0  0  0  0  0  0  0  0  0
   21.8280   12.5690   27.5330 C   0  0  0  0  0  0  0  0  0  0  0  0
   20.9780   13.6200   27.8160 C   0  0  0  0  0  0  0  0  0  0  0  0
   21.0190   14.2080   29.0400 F   0  0  0  0  0  0  0  0  0  0  0  0
   18.2210   15.0980   28.3340 C   0  0  0  0  0  0  0  0  0  0  0  0
   17.0850   13.7730   28.0140 S   0  0  0  0  0  0  0  0  0  0  0  0
   15.8840   14.0630   28.7760 O   0  0  0  0  0  0  0  0  0  0  0  0
   17.7440   12.5040   28.0050 O   0  0  0  0  0  0  0  0  0  0  0  0
   14.9874   12.8968   26.7151 H   0  0  0  0  0  0  0  0  0  0  0  0
   14.9201   13.9332   25.2495 H   0  0  0  0  0  0  0  0  0  0  0  0
   15.9210   12.4416   25.2495 H   0  0  0  0  0  0  0  0  0  0  0  0
   17.0240   16.1100   23.8620 H   0  0  0  0  0  0  0  0  0  0  0  0
   15.8450   14.9280   24.2110 H   0  0  0  0  0  0  0  0  0  0  0  0
   20.1030   16.6434   28.5659 H   0  0  0  0  0  0  0  0  0  0  0  0
   21.0204   16.3898   27.0425 H   0  0  0  0  0  0  0  0  0  0  0  0
   19.5451   17.4145   27.0425 H   0  0  0  0  0  0  0  0  0  0  0  0
   19.3496   13.8086   24.8795 H   0  0  0  0  0  0  0  0  0  0  0  0
   19.9400   11.2700   23.9440 H   0  0  0  0  0  0  0  0  0  0  0  0
   22.2925   12.3145   20.4090 H   0  0  0  0  0  0  0  0  0  0  0  0
   21.7298   10.7556   18.5304 H   0  0  0  0  0  0  0  0  0  0  0  0
   19.7469    8.1995   21.3250 H   0  0  0  0  0  0  0  0  0  0  0  0
   22.4581   11.0919   26.0797 H   0  0  0  0  0  0  0  0  0  0  0  0
   22.5479   12.2331   28.2939 H   0  0  0  0  0  0  0  0  0  0  0  0
   18.8065   14.8618   29.2348 H   0  0  0  0  0  0  0  0  0  0  0  0
   17.6488   16.0257   28.4825 H   0  0  0  0  0  0  0  0  0  0  0  0
  1  2  1  0
  2  3  1  0
  3  4  1  0
  3  5  2  0
  5  6  1  0
  6  7  1  1
  6  8  1  0
  8  9  2  0
  9 10  1  0
 10 11  1  0
 11 12  1  0
 12 13  2  0
 12 14  1  0
 14 15  2  0
 15 16  1  0
 16 17  2  0
 17 18  1  0
 17 19  1  0
 19 20  2  0
 10 21  2  0
 21 22  1  0
 22 23  2  0
 23 24  1  0
  6 25  1  0
 25 26  1  0
 26 27  2  0
 26 28  2  0
 26  2  1  0
 23  8  1  0
 20 14  1  0
  1 29  1  0
  1 30  1  0
  1 31  1  0
  4 32  1  0
  4 33  1  0
  7 34  1  0
  7 35  1  0
  7 36  1  0
  9 37  1  0
 11 38  1  0
 15 39  1  0
 16 40  1  0
 19 41  1  0
 21 42  1  0
 22 43  1  0
 25 44  1  0
 25 45  1  0
M  END
>  <meeko>  (10)
{"is_sidechain": false}

>  <source_group>  (10)
BACE1 canonical

>  <source_system>  (10)
BACE1_verubecestat

>  <source_run>  (10)
canonical_obabel_seed1103_ex32

>  <source_seed>  (10)
1103

>  <vina_pose_rank>  (10)
10

>  <vina_affinity_kcal_mol>  (10)
-7.7169999999999996

>  <vina_rmsd_to_crystal_angstrom>  (10)
8.3051999999999992

$$$$
BACE1_verubecestat__canonical_obabel_seed1103_ex32__pose11
     RDKit          3D

 45 47  0  0  0  0  0  0  0  0999 V2000
   28.1490   13.0660   23.6740 C   0  0  0  0  0  0  0  0  0  0  0  0
   27.7180   13.4350   22.3110 N   0  0  0  0  0  0  0  0  0  0  0  0
   27.0610   14.6500   22.0130 C   0  0  0  0  0  0  0  0  0  0  0  0
   26.9960   15.5190   23.0690 N   0  0  0  0  0  0  0  0  0  0  0  0
   26.5800   14.9430   20.8440 N   0  0  0  0  0  0  0  0  0  0  0  0
   26.5720   13.9710   19.7520 C   0  0  2  0  0  0  0  0  0  0  0  0
   26.3820   14.8500   18.5130 C   0  0  0  0  0  0  0  0  0  0  0  0
   25.4000   13.0070   19.8540 C   0  0  0  0  0  0  0  0  0  0  0  0
   24.4970   13.0820   20.9140 C   0  0  0  0  0  0  0  0  0  0  0  0
   23.4290   12.2220   21.0340 C   0  0  0  0  0  0  0  0  0  0  0  0
   22.5960   12.4060   22.1450 N   0  0  0  0  0  0  0  0  0  0  0  0
   22.4690   11.6010   23.2630 C   0  0  0  0  0  0  0  0  0  0  0  0
   22.9880   10.5020   23.4030 O   0  0  0  0  0  0  0  0  0  0  0  0
   21.6590   12.1740   24.3660 C   0  0  0  0  0  0  0  0  0  0  0  0
   20.3980   12.6830   24.1050 C   0  0  0  0  0  0  0  0  0  0  0  0
   19.6880   13.2070   25.1710 C   0  0  0  0  0  0  0  0  0  0  0  0
   20.2420   13.2030   26.4360 C   0  0  0  0  0  0  0  0  0  0  0  0
   19.5930   13.7080   27.4990 F   0  0  0  0  0  0  0  0  0  0  0  0
   21.5050   12.6790   26.5940 C   0  0  0  0  0  0  0  0  0  0  0  0
   22.2210   12.1690   25.5790 N   0  0  0  0  0  0  0  0  0  0  0  0
   23.2000   11.2470   20.0710 C   0  0  0  0  0  0  0  0  0  0  0  0
   24.0880   11.1560   19.0140 C   0  0  0  0  0  0  0  0  0  0  0  0
   25.1740   12.0050   18.9240 C   0  0  0  0  0  0  0  0  0  0  0  0
   26.0470   11.8760   17.8920 F   0  0  0  0  0  0  0  0  0  0  0  0
   27.9300   13.3170   19.6280 C   0  0  0  0  0  0  0  0  0  0  0  0
   28.3100   12.3790   21.0870 S   0  0  0  0  0  0  0  0  0  0  0  0
   29.7570   12.3580   21.2000 O   0  0  0  0  0  0  0  0  0  0  0  0
   27.4780   11.2220   21.2020 O   0  0  0  0  0  0  0  0  0  0  0  0
   27.5287   13.5970   24.4111 H   0  0  0  0  0  0  0  0  0  0  0  0
   28.0356   11.9808   23.8132 H   0  0  0  0  0  0  0  0  0  0  0  0
   29.2038   13.3453   23.8132 H   0  0  0  0  0  0  0  0  0  0  0  0
   26.5560   16.3930   22.9600 H   0  0  0  0  0  0  0  0  0  0  0  0
   27.3880   15.2700   23.9370 H   0  0  0  0  0  0  0  0  0  0  0  0
   26.1592   15.8809   18.8255 H   0  0  0  0  0  0  0  0  0  0  0  0
   27.3030   14.8401   17.9117 H   0  0  0  0  0  0  0  0  0  0  0  0
   25.5473   14.4606   17.9117 H   0  0  0  0  0  0  0  0  0  0  0  0
   24.6434   13.8561   21.6817 H   0  0  0  0  0  0  0  0  0  0  0  0
   22.0290   13.2100   22.1270 H   0  0  0  0  0  0  0  0  0  0  0  0
   19.9766   12.6713   23.0890 H   0  0  0  0  0  0  0  0  0  0  0  0
   18.6837   13.6262   25.0110 H   0  0  0  0  0  0  0  0  0  0  0  0
   21.9492   12.6780   27.6003 H   0  0  0  0  0  0  0  0  0  0  0  0
   22.3382   10.5676   20.1467 H   0  0  0  0  0  0  0  0  0  0  0  0
   23.9270   10.3969   18.2343 H   0  0  0  0  0  0  0  0  0  0  0  0
   27.9292   12.6453   18.7569 H   0  0  0  0  0  0  0  0  0  0  0  0
   28.6907   14.1018   19.5039 H   0  0  0  0  0  0  0  0  0  0  0  0
  1  2  1  0
  2  3  1  0
  3  4  1  0
  3  5  2  0
  5  6  1  0
  6  7  1  6
  6  8  1  0
  8  9  2  0
  9 10  1  0
 10 11  1  0
 11 12  1  0
 12 13  2  0
 12 14  1  0
 14 15  2  0
 15 16  1  0
 16 17  2  0
 17 18  1  0
 17 19  1  0
 19 20  2  0
 10 21  2  0
 21 22  1  0
 22 23  2  0
 23 24  1  0
  6 25  1  0
 25 26  1  0
 26 27  2  0
 26 28  2  0
 26  2  1  0
 23  8  1  0
 20 14  1  0
  1 29  1  0
  1 30  1  0
  1 31  1  0
  4 32  1  0
  4 33  1  0
  7 34  1  0
  7 35  1  0
  7 36  1  0
  9 37  1  0
 11 38  1  0
 15 39  1  0
 16 40  1  0
 19 41  1  0
 21 42  1  0
 22 43  1  0
 25 44  1  0
 25 45  1  0
M  END
>  <meeko>  (11)
{"is_sidechain": false}

>  <source_group>  (11)
BACE1 canonical

>  <source_system>  (11)
BACE1_verubecestat

>  <source_run>  (11)
canonical_obabel_seed1103_ex32

>  <source_seed>  (11)
1103

>  <vina_pose_rank>  (11)
11

>  <vina_affinity_kcal_mol>  (11)
-7.6379999999999999

>  <vina_rmsd_to_crystal_angstrom>  (11)
7.4424000000000001

$$$$
BACE1_verubecestat__canonical_obabel_seed1103_ex32__pose12
     RDKit          3D

 45 47  0  0  0  0  0  0  0  0999 V2000
   28.3240   14.8700   25.8640 C   0  0  0  0  0  0  0  0  0  0  0  0
   28.2090   15.1560   24.4200 N   0  0  0  0  0  0  0  0  0  0  0  0
   27.2710   16.0690   23.8880 C   0  0  0  0  0  0  0  0  0  0  0  0
   26.5850   16.7770   24.8380 N   0  0  0  0  0  0  0  0  0  0  0  0
   27.0820   16.2520   22.6180 N   0  0  0  0  0  0  0  0  0  0  0  0
   27.7510   15.4250   21.6150 C   0  0  2  0  0  0  0  0  0  0  0  0
   27.6260   16.2630   20.3400 C   0  0  0  0  0  0  0  0  0  0  0  0
   27.0390   14.0980   21.4020 C   0  0  0  0  0  0  0  0  0  0  0  0
   25.8890   13.7740   22.1220 C   0  0  0  0  0  0  0  0  0  0  0  0
   25.2260   12.5800   21.9520 C   0  0  0  0  0  0  0  0  0  0  0  0
   24.0820   12.3810   22.7360 N   0  0  0  0  0  0  0  0  0  0  0  0
   22.7560   12.5080   22.3640 C   0  0  0  0  0  0  0  0  0  0  0  0
   22.3640   12.9530   21.2920 O   0  0  0  0  0  0  0  0  0  0  0  0
   21.7690   12.0240   23.3590 C   0  0  0  0  0  0  0  0  0  0  0  0
   20.8120   11.0960   22.9880 C   0  0  0  0  0  0  0  0  0  0  0  0
   19.9150   10.6800   23.9570 C   0  0  0  0  0  0  0  0  0  0  0  0
   20.0020   11.1880   25.2390 C   0  0  0  0  0  0  0  0  0  0  0  0
   19.1490   10.8210   26.2100 F   0  0  0  0  0  0  0  0  0  0  0  0
   20.9860   12.1120   25.5100 C   0  0  0  0  0  0  0  0  0  0  0  0
   21.8660   12.5390   24.5890 N   0  0  0  0  0  0  0  0  0  0  0  0
   25.6780   11.6510   21.0240 C   0  0  0  0  0  0  0  0  0  0  0  0
   26.8200   11.9530   20.3030 C   0  0  0  0  0  0  0  0  0  0  0  0
   27.4930   13.1420   20.5070 C   0  0  0  0  0  0  0  0  0  0  0  0
   28.6270   13.4020   19.8080 F   0  0  0  0  0  0  0  0  0  0  0  0
   29.2260   15.3160   21.9310 C   0  0  0  0  0  0  0  0  0  0  0  0
   29.4770   14.4770   23.4750 S   0  0  0  0  0  0  0  0  0  0  0  0
   30.7300   14.9710   24.0170 O   0  0  0  0  0  0  0  0  0  0  0  0
   29.1320   13.0920   23.3840 O   0  0  0  0  0  0  0  0  0  0  0  0
   27.9742   15.7400   26.4391 H   0  0  0  0  0  0  0  0  0  0  0  0
   27.7084   13.9934   26.1143 H   0  0  0  0  0  0  0  0  0  0  0  0
   29.3750   14.6635   26.1143 H   0  0  0  0  0  0  0  0  0  0  0  0
   25.9090   17.4390   24.5660 H   0  0  0  0  0  0  0  0  0  0  0  0
   26.7680   16.6240   25.7940 H   0  0  0  0  0  0  0  0  0  0  0  0
   27.4686   17.3180   20.6086 H   0  0  0  0  0  0  0  0  0  0  0  0
   28.5481   16.1691   19.7476 H   0  0  0  0  0  0  0  0  0  0  0  0
   26.7715   15.9041   19.7476 H   0  0  0  0  0  0  0  0  0  0  0  0
   25.4982   14.4986   22.8516 H   0  0  0  0  0  0  0  0  0  0  0  0
   24.2430   12.1160   23.6700 H   0  0  0  0  0  0  0  0  0  0  0  0
   20.7657   10.7035   21.9615 H   0  0  0  0  0  0  0  0  0  0  0  0
   19.1345    9.9464   23.7068 H   0  0  0  0  0  0  0  0  0  0  0  0
   21.0550   12.5201   26.5292 H   0  0  0  0  0  0  0  0  0  0  0  0
   25.1437   10.7024   20.8666 H   0  0  0  0  0  0  0  0  0  0  0  0
   27.1967   11.2369   19.5578 H   0  0  0  0  0  0  0  0  0  0  0  0
   29.7264   14.7536   21.1290 H   0  0  0  0  0  0  0  0  0  0  0  0
   29.6471   16.3294   22.0068 H   0  0  0  0  0  0  0  0  0  0  0  0
  1  2  1  0
  2  3  1  0
  3  4  1  0
  3  5  2  0
  5  6  1  0
  6  7  1  6
  6  8  1  0
  8  9  2  0
  9 10  1  0
 10 11  1  0
 11 12  1  0
 12 13  2  0
 12 14  1  0
 14 15  2  0
 15 16  1  0
 16 17  2  0
 17 18  1  0
 17 19  1  0
 19 20  2  0
 10 21  2  0
 21 22  1  0
 22 23  2  0
 23 24  1  0
  6 25  1  0
 25 26  1  0
 26 27  2  0
 26 28  2  0
 26  2  1  0
 23  8  1  0
 20 14  1  0
  1 29  1  0
  1 30  1  0
  1 31  1  0
  4 32  1  0
  4 33  1  0
  7 34  1  0
  7 35  1  0
  7 36  1  0
  9 37  1  0
 11 38  1  0
 15 39  1  0
 16 40  1  0
 19 41  1  0
 21 42  1  0
 22 43  1  0
 25 44  1  0
 25 45  1  0
M  END
>  <meeko>  (12)
{"is_sidechain": false}

>  <source_group>  (12)
BACE1 canonical

>  <source_system>  (12)
BACE1_verubecestat

>  <source_run>  (12)
canonical_obabel_seed1103_ex32

>  <source_seed>  (12)
1103

>  <vina_pose_rank>  (12)
12

>  <vina_affinity_kcal_mol>  (12)
-7.4390000000000001

>  <vina_rmsd_to_crystal_angstrom>  (12)
7.8986000000000001

$$$$
BACE1_verubecestat__canonical_obabel_seed1103_ex32__pose13
     RDKit          3D

 45 47  0  0  0  0  0  0  0  0999 V2000
   27.1860   15.7060   24.1970 C   0  0  0  0  0  0  0  0  0  0  0  0
   28.0680   15.3300   23.0740 N   0  0  0  0  0  0  0  0  0  0  0  0
   27.7990   15.6830   21.7330 C   0  0  0  0  0  0  0  0  0  0  0  0
   26.7350   16.5320   21.5840 N   0  0  0  0  0  0  0  0  0  0  0  0
   28.5030   15.2710   20.7240 N   0  0  0  0  0  0  0  0  0  0  0  0
   29.5760   14.2920   20.8850 C   0  0  2  0  0  0  0  0  0  0  0  0
   30.3960   14.4680   19.6030 C   0  0  0  0  0  0  0  0  0  0  0  0
   29.0470   12.8680   20.9370 C   0  0  0  0  0  0  0  0  0  0  0  0
   27.6820   12.6110   21.0570 C   0  0  0  0  0  0  0  0  0  0  0  0
   27.1750   11.3320   21.1090 C   0  0  0  0  0  0  0  0  0  0  0  0
   25.7840   11.2130   21.2270 N   0  0  0  0  0  0  0  0  0  0  0  0
   24.8810   10.7510   20.2870 C   0  0  0  0  0  0  0  0  0  0  0  0
   25.1500   10.4860   19.1230 O   0  0  0  0  0  0  0  0  0  0  0  0
   23.4990   10.5450   20.7840 C   0  0  0  0  0  0  0  0  0  0  0  0
   22.4280   10.6570   19.9150 C   0  0  0  0  0  0  0  0  0  0  0  0
   21.1600   10.4570   20.4330 C   0  0  0  0  0  0  0  0  0  0  0  0
   21.0040   10.1530   21.7720 C   0  0  0  0  0  0  0  0  0  0  0  0
   19.7930    9.9590   22.3210 F   0  0  0  0  0  0  0  0  0  0  0  0
   22.1310   10.0690   22.5580 C   0  0  0  0  0  0  0  0  0  0  0  0
   23.3730   10.2640   22.0850 N   0  0  0  0  0  0  0  0  0  0  0  0
   28.0230   10.2350   21.0200 C   0  0  0  0  0  0  0  0  0  0  0  0
   29.3820   10.4710   20.9050 C   0  0  0  0  0  0  0  0  0  0  0  0
   29.8790   11.7600   20.8860 C   0  0  0  0  0  0  0  0  0  0  0  0
   31.2180   11.9640   20.8010 F   0  0  0  0  0  0  0  0  0  0  0  0
   30.4700   14.6870   22.0400 C   0  0  0  0  0  0  0  0  0  0  0  0
   29.5700   14.6510   23.5690 S   0  0  0  0  0  0  0  0  0  0  0  0
   30.2080   15.6130   24.4480 O   0  0  0  0  0  0  0  0  0  0  0  0
   29.2310   13.3150   23.9510 O   0  0  0  0  0  0  0  0  0  0  0  0
   27.6925   15.4901   25.1493 H   0  0  0  0  0  0  0  0  0  0  0  0
   26.9564   16.7802   24.1392 H   0  0  0  0  0  0  0  0  0  0  0  0
   26.2520   15.1278   24.1392 H   0  0  0  0  0  0  0  0  0  0  0  0
   26.4690   16.8350   20.6860 H   0  0  0  0  0  0  0  0  0  0  0  0
   26.2350   16.8380   22.3750 H   0  0  0  0  0  0  0  0  0  0  0  0
   31.4408   14.6923   19.8639 H   0  0  0  0  0  0  0  0  0  0  0  0
   30.3565   13.5409   19.0123 H   0  0  0  0  0  0  0  0  0  0  0  0
   29.9795   15.2972   19.0123 H   0  0  0  0  0  0  0  0  0  0  0  0
   26.9852   13.4604   21.1121 H   0  0  0  0  0  0  0  0  0  0  0  0
   25.4010   11.4930   22.0900 H   0  0  0  0  0  0  0  0  0  0  0  0
   22.5787   10.8961   18.8519 H   0  0  0  0  0  0  0  0  0  0  0  0
   20.2785   10.5399   19.7802 H   0  0  0  0  0  0  0  0  0  0  0  0
   22.0086    9.8307   23.6249 H   0  0  0  0  0  0  0  0  0  0  0  0
   27.6261    9.2093   21.0403 H   0  0  0  0  0  0  0  0  0  0  0  0
   30.0757    9.6208   20.8277 H   0  0  0  0  0  0  0  0  0  0  0  0
   31.3137   13.9838   22.1007 H   0  0  0  0  0  0  0  0  0  0  0  0
   30.8377   15.7096   21.8695 H   0  0  0  0  0  0  0  0  0  0  0  0
  1  2  1  0
  2  3  1  0
  3  4  1  0
  3  5  2  0
  5  6  1  0
  6  7  1  6
  6  8  1  0
  8  9  2  0
  9 10  1  0
 10 11  1  0
 11 12  1  0
 12 13  2  0
 12 14  1  0
 14 15  2  0
 15 16  1  0
 16 17  2  0
 17 18  1  0
 17 19  1  0
 19 20  2  0
 10 21  2  0
 21 22  1  0
 22 23  2  0
 23 24  1  0
  6 25  1  0
 25 26  1  0
 26 27  2  0
 26 28  2  0
 26  2  1  0
 23  8  1  0
 20 14  1  0
  1 29  1  0
  1 30  1  0
  1 31  1  0
  4 32  1  0
  4 33  1  0
  7 34  1  0
  7 35  1  0
  7 36  1  0
  9 37  1  0
 11 38  1  0
 15 39  1  0
 16 40  1  0
 19 41  1  0
 21 42  1  0
 22 43  1  0
 25 44  1  0
 25 45  1  0
M  END
>  <meeko>  (13)
{"is_sidechain": false}

>  <source_group>  (13)
BACE1 canonical

>  <source_system>  (13)
BACE1_verubecestat

>  <source_run>  (13)
canonical_obabel_seed1103_ex32

>  <source_seed>  (13)
1103

>  <vina_pose_rank>  (13)
13

>  <vina_affinity_kcal_mol>  (13)
-7.4390000000000001

>  <vina_rmsd_to_crystal_angstrom>  (13)
7.7253999999999996

$$$$
BACE1_verubecestat__canonical_obabel_seed1103_ex32__pose14
     RDKit          3D

 45 47  0  0  0  0  0  0  0  0999 V2000
   25.0850   13.8430   19.1700 C   0  0  0  0  0  0  0  0  0  0  0  0
   26.3640   13.4150   19.7710 N   0  0  0  0  0  0  0  0  0  0  0  0
   26.6450   12.0720   20.1080 C   0  0  0  0  0  0  0  0  0  0  0  0
   25.6910   11.1840   19.6900 N   0  0  0  0  0  0  0  0  0  0  0  0
   27.7170   11.6950   20.7340 N   0  0  0  0  0  0  0  0  0  0  0  0
   28.6800   12.6610   21.2590 C   0  0  2  0  0  0  0  0  0  0  0  0
   29.9390   11.8130   21.4630 C   0  0  0  0  0  0  0  0  0  0  0  0
   28.2470   13.2280   22.6020 C   0  0  0  0  0  0  0  0  0  0  0  0
   27.0130   12.8960   23.1590 C   0  0  0  0  0  0  0  0  0  0  0  0
   26.5940   13.3960   24.3710 C   0  0  0  0  0  0  0  0  0  0  0  0
   25.3330   12.9810   24.8190 N   0  0  0  0  0  0  0  0  0  0  0  0
   24.1990   12.7230   24.0690 C   0  0  0  0  0  0  0  0  0  0  0  0
   24.0810   12.9460   22.8720 O   0  0  0  0  0  0  0  0  0  0  0  0
   23.0790   12.0950   24.8110 C   0  0  0  0  0  0  0  0  0  0  0  0
   22.5280   10.9090   24.3580 C   0  0  0  0  0  0  0  0  0  0  0  0
   21.4840   10.3690   25.0870 C   0  0  0  0  0  0  0  0  0  0  0  0
   21.0340   11.0120   26.2240 C   0  0  0  0  0  0  0  0  0  0  0  0
   20.0170   10.5300   26.9590 F   0  0  0  0  0  0  0  0  0  0  0  0
   21.6420   12.1900   26.5920 C   0  0  0  0  0  0  0  0  0  0  0  0
   22.6530   12.7420   25.9010 N   0  0  0  0  0  0  0  0  0  0  0  0
   27.4130   14.2470   25.1020 C   0  0  0  0  0  0  0  0  0  0  0  0
   28.6400   14.5910   24.5620 C   0  0  0  0  0  0  0  0  0  0  0  0
   29.0340   14.1060   23.3300 C   0  0  0  0  0  0  0  0  0  0  0  0
   30.2310   14.4820   22.8100 F   0  0  0  0  0  0  0  0  0  0  0  0
   29.0080   13.6930   20.2030 C   0  0  0  0  0  0  0  0  0  0  0  0
   27.5690   14.6450   19.7890 S   0  0  0  0  0  0  0  0  0  0  0  0
   27.7480   15.0910   18.4190 O   0  0  0  0  0  0  0  0  0  0  0  0
   27.1720   15.4970   20.8660 O   0  0  0  0  0  0  0  0  0  0  0  0
   24.3671   14.0832   19.9681 H   0  0  0  0  0  0  0  0  0  0  0  0
   25.2526   14.7340   18.5471 H   0  0  0  0  0  0  0  0  0  0  0  0
   24.6825   13.0306   18.5471 H   0  0  0  0  0  0  0  0  0  0  0  0
   25.7980   10.2230   19.8780 H   0  0  0  0  0  0  0  0  0  0  0  0
   24.8990   11.5050   19.2010 H   0  0  0  0  0  0  0  0  0  0  0  0
   30.1258   11.6872   22.5397 H   0  0  0  0  0  0  0  0  0  0  0  0
   29.7959   10.8265   20.9979 H   0  0  0  0  0  0  0  0  0  0  0  0
   30.7994   12.3163   20.9979 H   0  0  0  0  0  0  0  0  0  0  0  0
   26.3506   12.2101   22.6105 H   0  0  0  0  0  0  0  0  0  0  0  0
   25.2430   12.8570   25.7920 H   0  0  0  0  0  0  0  0  0  0  0  0
   22.9065   10.4140   23.4515 H   0  0  0  0  0  0  0  0  0  0  0  0
   21.0130    9.4295   24.7622 H   0  0  0  0  0  0  0  0  0  0  0  0
   21.2830   12.7045   27.4955 H   0  0  0  0  0  0  0  0  0  0  0  0
   27.0959   14.6359   26.0809 H   0  0  0  0  0  0  0  0  0  0  0  0
   29.3106   15.2597   25.1215 H   0  0  0  0  0  0  0  0  0  0  0  0
   29.7887   14.3665   20.5863 H   0  0  0  0  0  0  0  0  0  0  0  0
   29.3615   13.1747   19.2994 H   0  0  0  0  0  0  0  0  0  0  0  0
  1  2  1  0
  2  3  1  0
  3  4  1  0
  3  5  2  0
  5  6  1  0
  6  7  1  1
  6  8  1  0
  8  9  2  0
  9 10  1  0
 10 11  1  0
 11 12  1  0
 12 13  2  0
 12 14  1  0
 14 15  2  0
 15 16  1  0
 16 17  2  0
 17 18  1  0
 17 19  1  0
 19 20  2  0
 10 21  2  0
 21 22  1  0
 22 23  2  0
 23 24  1  0
  6 25  1  0
 25 26  1  0
 26 27  2  0
 26 28  2  0
 26  2  1  0
 23  8  1  0
 20 14  1  0
  1 29  1  0
  1 30  1  0
  1 31  1  0
  4 32  1  0
  4 33  1  0
  7 34  1  0
  7 35  1  0
  7 36  1  0
  9 37  1  0
 11 38  1  0
 15 39  1  0
 16 40  1  0
 19 41  1  0
 21 42  1  0
 22 43  1  0
 25 44  1  0
 25 45  1  0
M  END
>  <meeko>  (14)
{"is_sidechain": false}

>  <source_group>  (14)
BACE1 canonical

>  <source_system>  (14)
BACE1_verubecestat

>  <source_run>  (14)
canonical_obabel_seed1103_ex32

>  <source_seed>  (14)
1103

>  <vina_pose_rank>  (14)
14

>  <vina_affinity_kcal_mol>  (14)
-7.3540000000000001

>  <vina_rmsd_to_crystal_angstrom>  (14)
7.7680999999999996

$$$$
BACE1_verubecestat__canonical_obabel_seed1103_ex32__pose15
     RDKit          3D

 45 47  0  0  0  0  0  0  0  0999 V2000
   17.0890   18.1440   27.1840 C   0  0  0  0  0  0  0  0  0  0  0  0
   16.6590   16.8060   26.7310 N   0  0  0  0  0  0  0  0  0  0  0  0
   15.8780   15.9380   27.5250 C   0  0  0  0  0  0  0  0  0  0  0  0
   15.4280   16.5030   28.6880 N   0  0  0  0  0  0  0  0  0  0  0  0
   15.5840   14.7200   27.1880 N   0  0  0  0  0  0  0  0  0  0  0  0
   16.1480   14.0970   25.9910 C   0  0  2  0  0  0  0  0  0  0  0  0
   15.2010   12.9200   25.7390 C   0  0  0  0  0  0  0  0  0  0  0  0
   17.5480   13.5570   26.2360 C   0  0  0  0  0  0  0  0  0  0  0  0
   18.3900   13.2320   25.1730 C   0  0  0  0  0  0  0  0  0  0  0  0
   19.6610   12.7390   25.3650 C   0  0  0  0  0  0  0  0  0  0  0  0
   20.4040   12.4550   24.2120 N   0  0  0  0  0  0  0  0  0  0  0  0
   20.3850   11.3070   23.4400 C   0  0  0  0  0  0  0  0  0  0  0  0
   19.7890   10.2770   23.7260 O   0  0  0  0  0  0  0  0  0  0  0  0
   21.1300   11.3910   22.1600 C   0  0  0  0  0  0  0  0  0  0  0  0
   21.6410   12.6060   21.7370 C   0  0  0  0  0  0  0  0  0  0  0  0
   22.3260   12.6270   20.5350 C   0  0  0  0  0  0  0  0  0  0  0  0
   22.4790   11.4610   19.8100 C   0  0  0  0  0  0  0  0  0  0  0  0
   23.1280   11.4350   18.6330 F   0  0  0  0  0  0  0  0  0  0  0  0
   21.9290   10.3030   20.3110 C   0  0  0  0  0  0  0  0  0  0  0  0
   21.2550   10.2520   21.4710 N   0  0  0  0  0  0  0  0  0  0  0  0
   20.1620   12.5670   26.6490 C   0  0  0  0  0  0  0  0  0  0  0  0
   19.3390   12.8810   27.7160 C   0  0  0  0  0  0  0  0  0  0  0  0
   18.0550   13.3450   27.5090 C   0  0  0  0  0  0  0  0  0  0  0  0
   17.2570   13.6180   28.5730 F   0  0  0  0  0  0  0  0  0  0  0  0
   16.0180   15.0310   24.8090 C   0  0  0  0  0  0  0  0  0  0  0  0
   16.9750   16.5040   25.0650 S   0  0  0  0  0  0  0  0  0  0  0  0
   16.3260   17.5570   24.3060 O   0  0  0  0  0  0  0  0  0  0  0  0
   18.3790   16.2340   25.0270 O   0  0  0  0  0  0  0  0  0  0  0  0
   17.0984   18.1733   28.2836 H   0  0  0  0  0  0  0  0  0  0  0  0
   18.0995   18.3529   26.8029 H   0  0  0  0  0  0  0  0  0  0  0  0
   16.3894   18.9025   26.8029 H   0  0  0  0  0  0  0  0  0  0  0  0
   14.8740   15.9770   29.3090 H   0  0  0  0  0  0  0  0  0  0  0  0
   15.6560   17.4370   28.9030 H   0  0  0  0  0  0  0  0  0  0  0  0
   14.8673   12.5053   26.7016 H   0  0  0  0  0  0  0  0  0  0  0  0
   14.3280   13.2677   25.1672 H   0  0  0  0  0  0  0  0  0  0  0  0
   15.7275   12.1417   25.1672 H   0  0  0  0  0  0  0  0  0  0  0  0
   18.0258   13.3746   24.1449 H   0  0  0  0  0  0  0  0  0  0  0  0
   21.0190   13.1640   23.9120 H   0  0  0  0  0  0  0  0  0  0  0  0
   21.5075   13.5203   22.3339 H   0  0  0  0  0  0  0  0  0  0  0  0
   22.7479   13.5701   20.1575 H   0  0  0  0  0  0  0  0  0  0  0  0
   22.0474    9.3745   19.7331 H   0  0  0  0  0  0  0  0  0  0  0  0
   21.1831   12.1921   26.8128 H   0  0  0  0  0  0  0  0  0  0  0  0
   19.7127   12.7593   28.7434 H   0  0  0  0  0  0  0  0  0  0  0  0
   16.3772   14.5198   23.9036 H   0  0  0  0  0  0  0  0  0  0  0  0
   14.9606   15.3117   24.6947 H   0  0  0  0  0  0  0  0  0  0  0  0
  1  2  1  0
  2  3  1  0
  3  4  1  0
  3  5  2  0
  5  6  1  0
  6  7  1  6
  6  8  1  0
  8  9  2  0
  9 10  1  0
 10 11  1  0
 11 12  1  0
 12 13  2  0
 12 14  1  0
 14 15  2  0
 15 16  1  0
 16 17  2  0
 17 18  1  0
 17 19  1  0
 19 20  2  0
 10 21  2  0
 21 22  1  0
 22 23  2  0
 23 24  1  0
  6 25  1  0
 25 26  1  0
 26 27  2  0
 26 28  2  0
 26  2  1  0
 23  8  1  0
 20 14  1  0
  1 29  1  0
  1 30  1  0
  1 31  1  0
  4 32  1  0
  4 33  1  0
  7 34  1  0
  7 35  1  0
  7 36  1  0
  9 37  1  0
 11 38  1  0
 15 39  1  0
 16 40  1  0
 19 41  1  0
 21 42  1  0
 22 43  1  0
 25 44  1  0
 25 45  1  0
M  END
>  <meeko>  (15)
{"is_sidechain": false}

>  <source_group>  (15)
BACE1 canonical

>  <source_system>  (15)
BACE1_verubecestat

>  <source_run>  (15)
canonical_obabel_seed1103_ex32

>  <source_seed>  (15)
1103

>  <vina_pose_rank>  (15)
15

>  <vina_affinity_kcal_mol>  (15)
-7.3540000000000001

>  <vina_rmsd_to_crystal_angstrom>  (15)
8.5770999999999997

$$$$
BACE1_verubecestat__canonical_obabel_seed1103_ex32__pose16
     RDKit          3D

 45 47  0  0  0  0  0  0  0  0999 V2000
   27.7420   15.4360   21.4840 C   0  0  0  0  0  0  0  0  0  0  0  0
   27.2370   14.1390   20.9930 N   0  0  0  0  0  0  0  0  0  0  0  0
   27.3870   13.7100   19.6550 C   0  0  0  0  0  0  0  0  0  0  0  0
   28.1720   14.5330   18.8930 N   0  0  0  0  0  0  0  0  0  0  0  0
   26.8560   12.6250   19.1810 N   0  0  0  0  0  0  0  0  0  0  0  0
   25.9440   11.8060   19.9760 C   0  0  2  0  0  0  0  0  0  0  0  0
   25.9600   10.4620   19.2410 C   0  0  0  0  0  0  0  0  0  0  0  0
   24.5250   12.3550   19.9640 C   0  0  0  0  0  0  0  0  0  0  0  0
   23.6910   12.2180   21.0720 C   0  0  0  0  0  0  0  0  0  0  0  0
   22.4030   12.7030   21.0880 C   0  0  0  0  0  0  0  0  0  0  0  0
   21.6710   12.5020   22.2650 N   0  0  0  0  0  0  0  0  0  0  0  0
   20.9130   11.4020   22.6270 C   0  0  0  0  0  0  0  0  0  0  0  0
   20.6520   10.4560   21.8950 O   0  0  0  0  0  0  0  0  0  0  0  0
   20.4300   11.3990   24.0290 C   0  0  0  0  0  0  0  0  0  0  0  0
   19.2420   10.7650   24.3490 C   0  0  0  0  0  0  0  0  0  0  0  0
   18.8380   10.7950   25.6720 C   0  0  0  0  0  0  0  0  0  0  0  0
   19.6160   11.4390   26.6150 C   0  0  0  0  0  0  0  0  0  0  0  0
   19.2590   11.5010   27.9090 F   0  0  0  0  0  0  0  0  0  0  0  0
   20.7790   12.0450   26.1980 C   0  0  0  0  0  0  0  0  0  0  0  0
   21.1940   12.0380   24.9210 N   0  0  0  0  0  0  0  0  0  0  0  0
   21.8910   13.3750   19.9850 C   0  0  0  0  0  0  0  0  0  0  0  0
   22.7040   13.5170   18.8750 C   0  0  0  0  0  0  0  0  0  0  0  0
   23.9830   12.9980   18.8620 C   0  0  0  0  0  0  0  0  0  0  0  0
   24.7510   13.1240   17.7490 F   0  0  0  0  0  0  0  0  0  0  0  0
   26.5260   11.5650   21.3520 C   0  0  0  0  0  0  0  0  0  0  0  0
   26.6810   13.0930   22.2420 S   0  0  0  0  0  0  0  0  0  0  0  0
   27.7780   12.9180   23.1770 O   0  0  0  0  0  0  0  0  0  0  0  0
   25.4030   13.6300   22.5950 O   0  0  0  0  0  0  0  0  0  0  0  0
   27.7423   15.4367   22.5840 H   0  0  0  0  0  0  0  0  0  0  0  0
   28.7670   15.5931   21.1170 H   0  0  0  0  0  0  0  0  0  0  0  0
   27.0931   16.2448   21.1170 H   0  0  0  0  0  0  0  0  0  0  0  0
   28.3360   14.3180   17.9460 H   0  0  0  0  0  0  0  0  0  0  0  0
   28.5730   15.3390   19.2920 H   0  0  0  0  0  0  0  0  0  0  0  0
   25.9698    9.6428   19.9750 H   0  0  0  0  0  0  0  0  0  0  0  0
   25.0628   10.3784   18.6101 H   0  0  0  0  0  0  0  0  0  0  0  0
   26.8589   10.3998   18.6101 H   0  0  0  0  0  0  0  0  0  0  0  0
   24.0756   11.7041   21.9653 H   0  0  0  0  0  0  0  0  0  0  0  0
   21.7000   13.2370   22.9200 H   0  0  0  0  0  0  0  0  0  0  0  0
   18.6416   10.2564   23.5804 H   0  0  0  0  0  0  0  0  0  0  0  0
   17.8991   10.3070   25.9726 H   0  0  0  0  0  0  0  0  0  0  0  0
   21.3986   12.5600   26.9469 H   0  0  0  0  0  0  0  0  0  0  0  0
   20.8692   13.7821   19.9942 H   0  0  0  0  0  0  0  0  0  0  0  0
   22.3262   14.0508   17.9905 H   0  0  0  0  0  0  0  0  0  0  0  0
   25.8641   10.8869   21.9107 H   0  0  0  0  0  0  0  0  0  0  0  0
   27.5244   11.1168   21.2409 H   0  0  0  0  0  0  0  0  0  0  0  0
  1  2  1  0
  2  3  1  0
  3  4  1  0
  3  5  2  0
  5  6  1  0
  6  7  1  6
  6  8  1  0
  8  9  2  0
  9 10  1  0
 10 11  1  0
 11 12  1  0
 12 13  2  0
 12 14  1  0
 14 15  2  0
 15 16  1  0
 16 17  2  0
 17 18  1  0
 17 19  1  0
 19 20  2  0
 10 21  2  0
 21 22  1  0
 22 23  2  0
 23 24  1  0
  6 25  1  0
 25 26  1  0
 26 27  2  0
 26 28  2  0
 26  2  1  0
 23  8  1  0
 20 14  1  0
  1 29  1  0
  1 30  1  0
  1 31  1  0
  4 32  1  0
  4 33  1  0
  7 34  1  0
  7 35  1  0
  7 36  1  0
  9 37  1  0
 11 38  1  0
 15 39  1  0
 16 40  1  0
 19 41  1  0
 21 42  1  0
 22 43  1  0
 25 44  1  0
 25 45  1  0
M  END
>  <meeko>  (16)
{"is_sidechain": false}

>  <source_group>  (16)
BACE1 canonical

>  <source_system>  (16)
BACE1_verubecestat

>  <source_run>  (16)
canonical_obabel_seed1103_ex32

>  <source_seed>  (16)
1103

>  <vina_pose_rank>  (16)
16

>  <vina_affinity_kcal_mol>  (16)
-7.2809999999999997

>  <vina_rmsd_to_crystal_angstrom>  (16)
7.4234

$$$$
BACE1_verubecestat__canonical_obabel_seed1103_ex32__pose17
     RDKit          3D

 45 47  0  0  0  0  0  0  0  0999 V2000
   29.2560   15.3160   22.3400 C   0  0  0  0  0  0  0  0  0  0  0  0
   29.0570   13.8930   21.9970 N   0  0  0  0  0  0  0  0  0  0  0  0
   29.8840   13.1980   21.0870 C   0  0  0  0  0  0  0  0  0  0  0  0
   30.9730   13.9140   20.6670 N   0  0  0  0  0  0  0  0  0  0  0  0
   29.6600   11.9830   20.6920 N   0  0  0  0  0  0  0  0  0  0  0  0
   28.4450   11.2630   21.0710 C   0  0  2  0  0  0  0  0  0  0  0  0
   28.8170    9.8010   20.8110 C   0  0  0  0  0  0  0  0  0  0  0  0
   27.2630   11.6340   20.1890 C   0  0  0  0  0  0  0  0  0  0  0  0
   27.3270   12.7230   19.3210 C   0  0  0  0  0  0  0  0  0  0  0  0
   26.2720   13.0820   18.5130 C   0  0  0  0  0  0  0  0  0  0  0  0
   26.4660   14.1960   17.6850 N   0  0  0  0  0  0  0  0  0  0  0  0
   26.9150   15.4570   18.0350 C   0  0  0  0  0  0  0  0  0  0  0  0
   27.0960   15.8460   19.1820 O   0  0  0  0  0  0  0  0  0  0  0  0
   27.2180   16.3590   16.8990 C   0  0  0  0  0  0  0  0  0  0  0  0
   27.1460   17.7310   17.0670 C   0  0  0  0  0  0  0  0  0  0  0  0
   27.4370   18.5260   15.9730 C   0  0  0  0  0  0  0  0  0  0  0  0
   27.7880   17.9410   14.7710 C   0  0  0  0  0  0  0  0  0  0  0  0
   28.0700   18.6720   13.6790 F   0  0  0  0  0  0  0  0  0  0  0  0
   27.8260   16.5670   14.7000 C   0  0  0  0  0  0  0  0  0  0  0  0
   27.5430   15.7700   15.7430 N   0  0  0  0  0  0  0  0  0  0  0  0
   25.0950   12.3440   18.5220 C   0  0  0  0  0  0  0  0  0  0  0  0
   25.0130   11.2620   19.3800 C   0  0  0  0  0  0  0  0  0  0  0  0
   26.0680   10.9320   20.2080 C   0  0  0  0  0  0  0  0  0  0  0  0
   25.9520    9.8830   21.0630 F   0  0  0  0  0  0  0  0  0  0  0  0
   28.2030   11.4010   22.5580 C   0  0  0  0  0  0  0  0  0  0  0  0
   27.8980   13.0960   22.9890 S   0  0  0  0  0  0  0  0  0  0  0  0
   28.3280   13.2560   24.3670 O   0  0  0  0  0  0  0  0  0  0  0  0
   26.6420   13.5510   22.4820 O   0  0  0  0  0  0  0  0  0  0  0  0
   29.2720   15.4307   23.4339 H   0  0  0  0  0  0  0  0  0  0  0  0
   30.2116   15.6641   21.9208 H   0  0  0  0  0  0  0  0  0  0  0  0
   28.4326   15.9128   21.9208 H   0  0  0  0  0  0  0  0  0  0  0  0
   31.6090   13.5140   20.0310 H   0  0  0  0  0  0  0  0  0  0  0  0
   31.1210   14.8280   21.0020 H   0  0  0  0  0  0  0  0  0  0  0  0
   28.9495    9.2801   21.7707 H   0  0  0  0  0  0  0  0  0  0  0  0
   28.0140    9.3147   20.2377 H   0  0  0  0  0  0  0  0  0  0  0  0
   29.7548    9.7576   20.2377 H   0  0  0  0  0  0  0  0  0  0  0  0
   28.2526   13.3159   19.2804 H   0  0  0  0  0  0  0  0  0  0  0  0
   26.2580   14.0630   16.7320 H   0  0  0  0  0  0  0  0  0  0  0  0
   26.8676   18.1730   18.0350 H   0  0  0  0  0  0  0  0  0  0  0  0
   27.3891   19.6215   16.0595 H   0  0  0  0  0  0  0  0  0  0  0  0
   28.1014   16.0994   13.7431 H   0  0  0  0  0  0  0  0  0  0  0  0
   24.2534   12.6121   17.8664 H   0  0  0  0  0  0  0  0  0  0  0  0
   24.0951   10.6562   19.4031 H   0  0  0  0  0  0  0  0  0  0  0  0
   27.3300   10.7940   22.8397 H   0  0  0  0  0  0  0  0  0  0  0  0
   29.0979   11.0547   23.0958 H   0  0  0  0  0  0  0  0  0  0  0  0
  1  2  1  0
  2  3  1  0
  3  4  1  0
  3  5  2  0
  5  6  1  0
  6  7  1  1
  6  8  1  0
  8  9  2  0
  9 10  1  0
 10 11  1  0
 11 12  1  0
 12 13  2  0
 12 14  1  0
 14 15  2  0
 15 16  1  0
 16 17  2  0
 17 18  1  0
 17 19  1  0
 19 20  2  0
 10 21  2  0
 21 22  1  0
 22 23  2  0
 23 24  1  0
  6 25  1  0
 25 26  1  0
 26 27  2  0
 26 28  2  0
 26  2  1  0
 23  8  1  0
 20 14  1  0
  1 29  1  0
  1 30  1  0
  1 31  1  0
  4 32  1  0
  4 33  1  0
  7 34  1  0
  7 35  1  0
  7 36  1  0
  9 37  1  0
 11 38  1  0
 15 39  1  0
 16 40  1  0
 19 41  1  0
 21 42  1  0
 22 43  1  0
 25 44  1  0
 25 45  1  0
M  END
>  <meeko>  (17)
{"is_sidechain": false}

>  <source_group>  (17)
BACE1 canonical

>  <source_system>  (17)
BACE1_verubecestat

>  <source_run>  (17)
canonical_obabel_seed1103_ex32

>  <source_seed>  (17)
1103

>  <vina_pose_rank>  (17)
17

>  <vina_affinity_kcal_mol>  (17)
-7.2190000000000003

>  <vina_rmsd_to_crystal_angstrom>  (17)
7.8209

$$$$
BACE1_verubecestat__canonical_obabel_seed1103_ex32__pose18
     RDKit          3D

 45 47  0  0  0  0  0  0  0  0999 V2000
   19.8270   15.7260   27.6370 C   0  0  0  0  0  0  0  0  0  0  0  0
   19.9030   14.2600   27.4830 N   0  0  0  0  0  0  0  0  0  0  0  0
   20.6570   13.4330   28.3440 C   0  0  0  0  0  0  0  0  0  0  0  0
   21.1870   14.0900   29.4220 N   0  0  0  0  0  0  0  0  0  0  0  0
   20.8230   12.1590   28.1590 N   0  0  0  0  0  0  0  0  0  0  0  0
   20.3330   11.4880   26.9560 C   0  0  2  0  0  0  0  0  0  0  0  0
   20.3130   10.0140   27.3710 C   0  0  0  0  0  0  0  0  0  0  0  0
   21.2850   11.6540   25.7820 C   0  0  0  0  0  0  0  0  0  0  0  0
   22.5550   12.2030   25.9560 C   0  0  0  0  0  0  0  0  0  0  0  0
   23.4350   12.3680   24.9110 C   0  0  0  0  0  0  0  0  0  0  0  0
   24.6810   12.9280   25.2230 N   0  0  0  0  0  0  0  0  0  0  0  0
   25.6330   13.4370   24.3570 C   0  0  0  0  0  0  0  0  0  0  0  0
   25.5880   13.3580   23.1360 O   0  0  0  0  0  0  0  0  0  0  0  0
   26.7580   14.1540   25.0030 C   0  0  0  0  0  0  0  0  0  0  0  0
   26.5020   15.1270   25.9540 C   0  0  0  0  0  0  0  0  0  0  0  0
   27.5890   15.7660   26.5240 C   0  0  0  0  0  0  0  0  0  0  0  0
   28.8700   15.4210   26.1380 C   0  0  0  0  0  0  0  0  0  0  0  0
   29.9560   16.0200   26.6560 F   0  0  0  0  0  0  0  0  0  0  0  0
   29.0230   14.4450   25.1800 C   0  0  0  0  0  0  0  0  0  0  0  0
   27.9870   13.8110   24.6050 N   0  0  0  0  0  0  0  0  0  0  0  0
   23.0880   11.9650   23.6280 C   0  0  0  0  0  0  0  0  0  0  0  0
   21.8300   11.4220   23.4360 C   0  0  0  0  0  0  0  0  0  0  0  0
   20.9450   11.2920   24.4880 C   0  0  0  0  0  0  0  0  0  0  0  0
   19.7050   10.7830   24.2670 F   0  0  0  0  0  0  0  0  0  0  0  0
   18.9010   11.8910   26.6830 C   0  0  0  0  0  0  0  0  0  0  0  0
   18.7960   13.6260   26.3260 S   0  0  0  0  0  0  0  0  0  0  0  0
   17.4660   14.0510   26.7260 O   0  0  0  0  0  0  0  0  0  0  0  0
   19.3960   13.9440   25.0680 O   0  0  0  0  0  0  0  0  0  0  0  0
   19.8137   15.9821   28.7067 H   0  0  0  0  0  0  0  0  0  0  0  0
   20.7023   16.1907   27.1595 H   0  0  0  0  0  0  0  0  0  0  0  0
   18.9084   16.0977   27.1595 H   0  0  0  0  0  0  0  0  0  0  0  0
   21.7300   13.5980   30.0800 H   0  0  0  0  0  0  0  0  0  0  0  0
   21.0260   15.0540   29.5390 H   0  0  0  0  0  0  0  0  0  0  0  0
   20.3120    9.9421   28.4686 H   0  0  0  0  0  0  0  0  0  0  0  0
   19.4082    9.5328   26.9712 H   0  0  0  0  0  0  0  0  0  0  0  0
   21.2044    9.5084   26.9712 H   0  0  0  0  0  0  0  0  0  0  0  0
   22.8643   12.5152   26.9644 H   0  0  0  0  0  0  0  0  0  0  0  0
   24.9070   12.9660   26.1800 H   0  0  0  0  0  0  0  0  0  0  0  0
   25.4727   15.3827   26.2457 H   0  0  0  0  0  0  0  0  0  0  0  0
   27.4336   16.5470   27.2829 H   0  0  0  0  0  0  0  0  0  0  0  0
   30.0422   14.1707   24.8701 H   0  0  0  0  0  0  0  0  0  0  0  0
   23.7920   12.0742   22.7899 H   0  0  0  0  0  0  0  0  0  0  0  0
   21.5306   11.0892   22.4312 H   0  0  0  0  0  0  0  0  0  0  0  0
   18.5234   11.3213   25.8211 H   0  0  0  0  0  0  0  0  0  0  0  0
   18.2963   11.6761   27.5764 H   0  0  0  0  0  0  0  0  0  0  0  0
  1  2  1  0
  2  3  1  0
  3  4  1  0
  3  5  2  0
  5  6  1  0
  6  7  1  1
  6  8  1  0
  8  9  2  0
  9 10  1  0
 10 11  1  0
 11 12  1  0
 12 13  2  0
 12 14  1  0
 14 15  2  0
 15 16  1  0
 16 17  2  0
 17 18  1  0
 17 19  1  0
 19 20  2  0
 10 21  2  0
 21 22  1  0
 22 23  2  0
 23 24  1  0
  6 25  1  0
 25 26  1  0
 26 27  2  0
 26 28  2  0
 26  2  1  0
 23  8  1  0
 20 14  1  0
  1 29  1  0
  1 30  1  0
  1 31  1  0
  4 32  1  0
  4 33  1  0
  7 34  1  0
  7 35  1  0
  7 36  1  0
  9 37  1  0
 11 38  1  0
 15 39  1  0
 16 40  1  0
 19 41  1  0
 21 42  1  0
 22 43  1  0
 25 44  1  0
 25 45  1  0
M  END
>  <meeko>  (18)
{"is_sidechain": false}

>  <source_group>  (18)
BACE1 canonical

>  <source_system>  (18)
BACE1_verubecestat

>  <source_run>  (18)
canonical_obabel_seed1103_ex32

>  <source_seed>  (18)
1103

>  <vina_pose_rank>  (18)
18

>  <vina_affinity_kcal_mol>  (18)
-7.2000000000000002

>  <vina_rmsd_to_crystal_angstrom>  (18)
5.8497000000000003

$$$$
BACE1_verubecestat__canonical_obabel_seed1103_ex32__pose19
     RDKit          3D

 45 47  0  0  0  0  0  0  0  0999 V2000
   28.6590   13.4250   23.8270 C   0  0  0  0  0  0  0  0  0  0  0  0
   28.5830   14.5140   22.8330 N   0  0  0  0  0  0  0  0  0  0  0  0
   27.7070   15.6150   22.9620 C   0  0  0  0  0  0  0  0  0  0  0  0
   27.0460   15.6610   24.1590 N   0  0  0  0  0  0  0  0  0  0  0  0
   27.5500   16.5220   22.0480 N   0  0  0  0  0  0  0  0  0  0  0  0
   28.1880   16.4120   20.7380 C   0  0  2  0  0  0  0  0  0  0  0  0
   28.1310   17.8470   20.2070 C   0  0  0  0  0  0  0  0  0  0  0  0
   27.4070   15.5090   19.7970 C   0  0  0  0  0  0  0  0  0  0  0  0
   26.3120   14.7730   20.2480 C   0  0  0  0  0  0  0  0  0  0  0  0
   25.5890   13.9460   19.4200 C   0  0  0  0  0  0  0  0  0  0  0  0
   24.5100   13.2650   19.9990 N   0  0  0  0  0  0  0  0  0  0  0  0
   23.2410   13.0720   19.4820 C   0  0  0  0  0  0  0  0  0  0  0  0
   22.8110   13.5910   18.4600 O   0  0  0  0  0  0  0  0  0  0  0  0
   22.3850   12.1270   20.2400 C   0  0  0  0  0  0  0  0  0  0  0  0
   21.9060   12.4800   21.4890 C   0  0  0  0  0  0  0  0  0  0  0  0
   21.1130   11.5600   22.1530 C   0  0  0  0  0  0  0  0  0  0  0  0
   20.8280   10.3450   21.5620 C   0  0  0  0  0  0  0  0  0  0  0  0
   20.0710    9.4170   22.1720 F   0  0  0  0  0  0  0  0  0  0  0  0
   21.3560   10.0830   20.3180 C   0  0  0  0  0  0  0  0  0  0  0  0
   22.1330   10.9530   19.6520 N   0  0  0  0  0  0  0  0  0  0  0  0
   25.9200   13.8320   18.0750 C   0  0  0  0  0  0  0  0  0  0  0  0
   27.0060   14.5520   17.6100 C   0  0  0  0  0  0  0  0  0  0  0  0
   27.7420   15.3540   18.4600 C   0  0  0  0  0  0  0  0  0  0  0  0
   28.8220   16.0270   17.9850 F   0  0  0  0  0  0  0  0  0  0  0  0
   29.6500   16.0580   20.9000 C   0  0  0  0  0  0  0  0  0  0  0  0
   29.8280   14.4560   21.6440 S   0  0  0  0  0  0  0  0  0  0  0  0
   31.0970   14.4660   22.3500 O   0  0  0  0  0  0  0  0  0  0  0  0
   29.4080   13.4140   20.7600 O   0  0  0  0  0  0  0  0  0  0  0  0
   28.6293   13.8511   24.8407 H   0  0  0  0  0  0  0  0  0  0  0  0
   27.8062   12.7437   23.6904 H   0  0  0  0  0  0  0  0  0  0  0  0
   29.5981   12.8688   23.6904 H   0  0  0  0  0  0  0  0  0  0  0  0
   26.4120   16.3910   24.3440 H   0  0  0  0  0  0  0  0  0  0  0  0
   27.2040   14.9640   24.8370 H   0  0  0  0  0  0  0  0  0  0  0  0
   28.1031   18.5500   21.0526 H   0  0  0  0  0  0  0  0  0  0  0  0
   29.0219   18.0466   19.5935 H   0  0  0  0  0  0  0  0  0  0  0  0
   27.2271   17.9753   19.5935 H   0  0  0  0  0  0  0  0  0  0  0  0
   26.0156   14.8567   21.3040 H   0  0  0  0  0  0  0  0  0  0  0  0
   24.6760   12.8740   20.8870 H   0  0  0  0  0  0  0  0  0  0  0  0
   22.1463   13.4552   21.9376 H   0  0  0  0  0  0  0  0  0  0  0  0
   20.7108   11.7963   23.1492 H   0  0  0  0  0  0  0  0  0  0  0  0
   21.1308    9.1149   19.8468 H   0  0  0  0  0  0  0  0  0  0  0  0
   25.3360   13.1886   17.4004 H   0  0  0  0  0  0  0  0  0  0  0  0
   27.2871   14.4848   16.5487 H   0  0  0  0  0  0  0  0  0  0  0  0
   30.1321   16.0527   19.9113 H   0  0  0  0  0  0  0  0  0  0  0  0
   30.1252   16.8058   21.5519 H   0  0  0  0  0  0  0  0  0  0  0  0
  1  2  1  0
  2  3  1  0
  3  4  1  0
  3  5  2  0
  5  6  1  0
  6  7  1  6
  6  8  1  0
  8  9  2  0
  9 10  1  0
 10 11  1  0
 11 12  1  0
 12 13  2  0
 12 14  1  0
 14 15  2  0
 15 16  1  0
 16 17  2  0
 17 18  1  0
 17 19  1  0
 19 20  2  0
 10 21  2  0
 21 22  1  0
 22 23  2  0
 23 24  1  0
  6 25  1  0
 25 26  1  0
 26 27  2  0
 26 28  2  0
 26  2  1  0
 23  8  1  0
 20 14  1  0
  1 29  1  0
  1 30  1  0
  1 31  1  0
  4 32  1  0
  4 33  1  0
  7 34  1  0
  7 35  1  0
  7 36  1  0
  9 37  1  0
 11 38  1  0
 15 39  1  0
 16 40  1  0
 19 41  1  0
 21 42  1  0
 22 43  1  0
 25 44  1  0
 25 45  1  0
M  END
>  <meeko>  (19)
{"is_sidechain": false}

>  <source_group>  (19)
BACE1 canonical

>  <source_system>  (19)
BACE1_verubecestat

>  <source_run>  (19)
canonical_obabel_seed1103_ex32

>  <source_seed>  (19)
1103

>  <vina_pose_rank>  (19)
19

>  <vina_affinity_kcal_mol>  (19)
-7.194

>  <vina_rmsd_to_crystal_angstrom>  (19)
7.9672999999999998

$$$$
BACE1_verubecestat__canonical_obabel_seed1103_ex32__pose20
     RDKit          3D

 45 47  0  0  0  0  0  0  0  0999 V2000
   29.2990   16.4440   23.9440 C   0  0  0  0  0  0  0  0  0  0  0  0
   29.3320   15.1680   23.2020 N   0  0  0  0  0  0  0  0  0  0  0  0
   30.2660   14.8980   22.1770 C   0  0  0  0  0  0  0  0  0  0  0  0
   31.2300   15.8590   22.0370 N   0  0  0  0  0  0  0  0  0  0  0  0
   30.2410   13.8290   21.4420 N   0  0  0  0  0  0  0  0  0  0  0  0
   29.1530   12.8570   21.5360 C   0  0  2  0  0  0  0  0  0  0  0  0
   29.7550   11.6050   20.8920 C   0  0  0  0  0  0  0  0  0  0  0  0
   27.9350   13.2840   20.7340 C   0  0  0  0  0  0  0  0  0  0  0  0
   26.6580   12.8370   21.0700 C   0  0  0  0  0  0  0  0  0  0  0  0
   25.5380   13.2050   20.3600 C   0  0  0  0  0  0  0  0  0  0  0  0
   24.3140   12.6870   20.8040 N   0  0  0  0  0  0  0  0  0  0  0  0
   23.4360   11.8610   20.1250 C   0  0  0  0  0  0  0  0  0  0  0  0
   23.5340   11.5460   18.9470 O   0  0  0  0  0  0  0  0  0  0  0  0
   22.3260   11.3110   20.9410 C   0  0  0  0  0  0  0  0  0  0  0  0
   21.8160   12.0440   21.9980 C   0  0  0  0  0  0  0  0  0  0  0  0
   20.7820   11.4820   22.7260 C   0  0  0  0  0  0  0  0  0  0  0  0
   20.2970   10.2350   22.3820 C   0  0  0  0  0  0  0  0  0  0  0  0
   19.3010    9.6460   23.0650 F   0  0  0  0  0  0  0  0  0  0  0  0
   20.8730    9.5810   21.3170 C   0  0  0  0  0  0  0  0  0  0  0  0
   21.8820   10.0980   20.5960 N   0  0  0  0  0  0  0  0  0  0  0  0
   25.6440   14.0700   19.2770 C   0  0  0  0  0  0  0  0  0  0  0  0
   26.9040   14.5210   18.9270 C   0  0  0  0  0  0  0  0  0  0  0  0
   28.0230   14.1180   19.6290 C   0  0  0  0  0  0  0  0  0  0  0  0
   29.2510   14.5520   19.2470 F   0  0  0  0  0  0  0  0  0  0  0  0
   28.8810   12.5210   22.9860 C   0  0  0  0  0  0  0  0  0  0  0  0
   28.3070   13.9530   23.8630 S   0  0  0  0  0  0  0  0  0  0  0  0
   28.6950   13.7720   25.2510 O   0  0  0  0  0  0  0  0  0  0  0  0
   26.9980   14.3420   23.4390 O   0  0  0  0  0  0  0  0  0  0  0  0
   29.3043   16.2399   25.0249 H   0  0  0  0  0  0  0  0  0  0  0  0
   30.1819   17.0446   23.6800 H   0  0  0  0  0  0  0  0  0  0  0  0
   28.3862   16.9982   23.6800 H   0  0  0  0  0  0  0  0  0  0  0  0
   31.9270   15.7600   21.3480 H   0  0  0  0  0  0  0  0  0  0  0  0
   31.2280   16.6490   22.6250 H   0  0  0  0  0  0  0  0  0  0  0  0
   30.0882   10.9121   21.6787 H   0  0  0  0  0  0  0  0  0  0  0  0
   28.9952   11.1125   20.2673 H   0  0  0  0  0  0  0  0  0  0  0  0
   30.6141   11.8909   20.2673 H   0  0  0  0  0  0  0  0  0  0  0  0
   26.5414   12.1660   21.9338 H   0  0  0  0  0  0  0  0  0  0  0  0
   24.0450   12.9440   21.7160 H   0  0  0  0  0  0  0  0  0  0  0  0
   22.2176   13.0365   22.2502 H   0  0  0  0  0  0  0  0  0  0  0  0
   20.3472   12.0270   23.5768 H   0  0  0  0  0  0  0  0  0  0  0  0
   20.4889    8.5873   21.0428 H   0  0  0  0  0  0  0  0  0  0  0  0
   24.7527   14.3863   18.7152 H   0  0  0  0  0  0  0  0  0  0  0  0
   27.0163   15.2105   18.0773 H   0  0  0  0  0  0  0  0  0  0  0  0
   28.1137   11.7345   23.0369 H   0  0  0  0  0  0  0  0  0  0  0  0
   29.8153   12.1723   23.4501 H   0  0  0  0  0  0  0  0  0  0  0  0
  1  2  1  0
  2  3  1  0
  3  4  1  0
  3  5  2  0
  5  6  1  0
  6  7  1  6
  6  8  1  0
  8  9  2  0
  9 10  1  0
 10 11  1  0
 11 12  1  0
 12 13  2  0
 12 14  1  0
 14 15  2  0
 15 16  1  0
 16 17  2  0
 17 18  1  0
 17 19  1  0
 19 20  2  0
 10 21  2  0
 21 22  1  0
 22 23  2  0
 23 24  1  0
  6 25  1  0
 25 26  1  0
 26 27  2  0
 26 28  2  0
 26  2  1  0
 23  8  1  0
 20 14  1  0
  1 29  1  0
  1 30  1  0
  1 31  1  0
  4 32  1  0
  4 33  1  0
  7 34  1  0
  7 35  1  0
  7 36  1  0
  9 37  1  0
 11 38  1  0
 15 39  1  0
 16 40  1  0
 19 41  1  0
 21 42  1  0
 22 43  1  0
 25 44  1  0
 25 45  1  0
M  END
>  <meeko>  (20)
{"is_sidechain": false}

>  <source_group>  (20)
BACE1 canonical

>  <source_system>  (20)
BACE1_verubecestat

>  <source_run>  (20)
canonical_obabel_seed1103_ex32

>  <source_seed>  (20)
1103

>  <vina_pose_rank>  (20)
20

>  <vina_affinity_kcal_mol>  (20)
-7.1760000000000002

>  <vina_rmsd_to_crystal_angstrom>  (20)
7.7187000000000001

$$$$
