BACE1_verubecestat__canonical_obabel_seed1103_ex32__pose01


 31 33  0  0  0  0  0  0  0  0999 V2000
   22.8760   10.5220   20.5660 C   0  0  0  0  0  0  0  0  0  0  0  0
   24.1600   10.1440   20.9570 C   0  0  0  0  0  0  0  0  0  0  0  0
   25.2820   10.5050   20.2460 C   0  0  0  0  0  0  0  0  0  0  0  0
   25.1670   11.2530   19.0810 C   0  0  0  0  0  0  0  0  0  0  0  0
   23.9000   11.6400   18.6800 C   0  0  0  0  0  0  0  0  0  0  0  0
   22.7860   11.2980   19.4200 C   0  0  0  0  0  0  0  0  0  0  0  0
   21.5570   11.7150   19.0200 F   0  0  0  0  0  0  0  0  0  0  0  0
   23.1420   11.6680   25.1230 C   0  0  0  0  0  0  0  0  0  0  0  0
   22.5220   11.1230   23.8980 N   0  0  0  0  0  0  0  0  0  0  0  0
   22.4520    9.7400   23.6200 C   0  0  0  0  0  0  0  0  0  0  0  0
   22.8700    8.9440   24.6520 N   0  0  0  0  0  0  0  0  0  0  0  0
   22.0100    9.2500   22.5030 N   0  0  0  0  0  0  0  0  0  0  0  0
   21.6560   10.1100   21.3740 C   0  0  0  0  0  0  0  0  0  0  0  0
   20.7770    9.1990   20.5130 C   0  0  0  0  0  0  0  0  0  0  0  0
   20.7840   11.2520   21.8450 C   0  0  0  0  0  0  0  0  0  0  0  0
   21.6730   12.2980   22.9690 S   0  0  0  0  0  0  0  0  0  0  0  0
   20.6840   12.9030   23.8430 O   0  0  0  0  0  0  0  0  0  0  0  0
   22.7100   13.0240   22.3060 O   0  0  0  0  0  0  0  0  0  0  0  0
   22.8590    7.9650   24.5540 H   0  0  0  0  0  0  0  0  0  0  0  0
   23.1820    9.3510   25.4930 H   0  0  0  0  0  0  0  0  0  0  0  0
   26.5130   10.0580   20.7460 N   0  0  0  0  0  0  0  0  0  0  0  0
   27.6240   10.8090   21.0830 C   0  0  0  0  0  0  0  0  0  0  0  0
   27.7550   12.0080   20.8720 O   0  0  0  0  0  0  0  0  0  0  0  0
   26.5960    9.0860   20.8730 H   0  0  0  0  0  0  0  0  0  0  0  0
   28.7000   10.0680   21.7850 C   0  0  0  0  0  0  0  0  0  0  0  0
   28.6490    8.6870   21.8650 C   0  0  0  0  0  0  0  0  0  0  0  0
   29.6780    8.0470   22.5330 C   0  0  0  0  0  0  0  0  0  0  0  0
   30.7050    8.7870   23.0850 C   0  0  0  0  0  0  0  0  0  0  0  0
   31.7200    8.2100   23.7500 F   0  0  0  0  0  0  0  0  0  0  0  0
   30.6650   10.1570   22.9580 C   0  0  0  0  0  0  0  0  0  0  0  0
   29.6770   10.8070   22.3210 N   0  0  0  0  0  0  0  0  0  0  0  0
  8  9  1  0
  9 10  1  0
 10 11  1  0
 10 12  2  0
 12 13  1  0
 13 14  1  0
 13  1  1  0
  1  2  2  0
  2  3  1  0
  3 21  1  0
 21 22  1  0
 22 23  2  0
 22 25  1  0
 25 26  2  0
 26 27  1  0
 27 28  2  0
 28 29  1  0
 28 30  1  0
 30 31  2  0
  3  4  2  0
  4  5  1  0
  5  6  2  0
  6  7  1  0
 13 15  1  0
 15 16  1  0
 16 17  2  0
 16 18  2  0
 16  9  1  0
  6  1  1  0
 31 25  1  0
 11 19  1  0
 11 20  1  0
 21 24  1  0
M  END
> <meeko>
{"is_sidechain": false}

> <source_group>
BACE1 canonical

> <source_system>
BACE1_verubecestat

> <source_run>
canonical_obabel_seed1103_ex32

> <source_seed>
1103

> <vina_pose_rank>
1

> <vina_affinity_kcal_mol>
-9.5169999999999995

> <vina_rmsd_to_crystal_angstrom>
0.9536

> <minimizedAffinity>
-9.51523

> <CNNscore>
0.9102242589

> <CNNaffinity>
7.3509011269

> <CNN_VS>
6.6909685135

> <CNNaffinity_variance>
0.0734529048

$$$$
BACE1_verubecestat__canonical_obabel_seed1103_ex32__pose02


 31 33  0  0  0  0  0  0  0  0999 V2000
   20.5000   12.4880   26.9590 C   0  0  0  0  0  0  0  0  0  0  0  0
   20.9290   12.7230   25.6530 C   0  0  0  0  0  0  0  0  0  0  0  0
   21.2920   11.7040   24.8030 C   0  0  0  0  0  0  0  0  0  0  0  0
   21.2640   10.3840   25.2340 C   0  0  0  0  0  0  0  0  0  0  0  0
   20.8370   10.1310   26.5260 C   0  0  0  0  0  0  0  0  0  0  0  0
   20.4450   11.1610   27.3580 C   0  0  0  0  0  0  0  0  0  0  0  0
   20.0030   10.8830   28.6110 F   0  0  0  0  0  0  0  0  0  0  0  0
   16.9380   15.0840   25.3100 C   0  0  0  0  0  0  0  0  0  0  0  0
   17.9730   14.6640   26.2750 N   0  0  0  0  0  0  0  0  0  0  0  0
   19.2020   15.3430   26.4290 C   0  0  0  0  0  0  0  0  0  0  0  0
   19.2860   16.5090   25.7160 N   0  0  0  0  0  0  0  0  0  0  0  0
   20.1650   14.9270   27.1930 N   0  0  0  0  0  0  0  0  0  0  0  0
   20.1020   13.6350   27.8740 C   0  0  0  0  0  0  0  0  0  0  0  0
   21.1560   13.7770   28.9760 C   0  0  0  0  0  0  0  0  0  0  0  0
   18.7630   13.4740   28.5590 C   0  0  0  0  0  0  0  0  0  0  0  0
   17.4490   13.4400   27.3660 S   0  0  0  0  0  0  0  0  0  0  0  0
   16.2650   13.9420   28.0400 O   0  0  0  0  0  0  0  0  0  0  0  0
   17.4810   12.2460   26.5800 O   0  0  0  0  0  0  0  0  0  0  0  0
   20.1050   17.0540   25.7590 H   0  0  0  0  0  0  0  0  0  0  0  0
   18.5280   16.8030   25.1610 H   0  0  0  0  0  0  0  0  0  0  0  0
   21.7070   12.0770   23.5170 N   0  0  0  0  0  0  0  0  0  0  0  0
   22.9720   12.4490   23.1000 C   0  0  0  0  0  0  0  0  0  0  0  0
   23.9300   12.6400   23.8380 O   0  0  0  0  0  0  0  0  0  0  0  0
   21.0090   12.0730   22.8230 H   0  0  0  0  0  0  0  0  0  0  0  0
   23.1410   12.5830   21.6320 C   0  0  0  0  0  0  0  0  0  0  0  0
   22.0280   12.6420   20.8110 C   0  0  0  0  0  0  0  0  0  0  0  0
   22.2430   12.7640   19.4500 C   0  0  0  0  0  0  0  0  0  0  0  0
   23.5340   12.8260   18.9600 C   0  0  0  0  0  0  0  0  0  0  0  0
   23.7920   12.9350   17.6460 F   0  0  0  0  0  0  0  0  0  0  0  0
   24.5760   12.7530   19.8560 C   0  0  0  0  0  0  0  0  0  0  0  0
   24.3990   12.6280   21.1820 N   0  0  0  0  0  0  0  0  0  0  0  0
  8  9  1  0
  9 10  1  0
 10 11  1  0
 10 12  2  0
 12 13  1  0
 13 14  1  0
 13  1  1  0
  1  2  2  0
  2  3  1  0
  3 21  1  0
 21 22  1  0
 22 23  2  0
 22 25  1  0
 25 26  2  0
 26 27  1  0
 27 28  2  0
 28 29  1  0
 28 30  1  0
 30 31  2  0
  3  4  2  0
  4  5  1  0
  5  6  2  0
  6  7  1  0
 13 15  1  0
 15 16  1  0
 16 17  2  0
 16 18  2  0
 16  9  1  0
  6  1  1  0
 31 25  1  0
 11 19  1  0
 11 20  1  0
 21 24  1  0
M  END
> <meeko>
{"is_sidechain": false}

> <source_group>
BACE1 canonical

> <source_system>
BACE1_verubecestat

> <source_run>
canonical_obabel_seed1103_ex32

> <source_seed>
1103

> <vina_pose_rank>
2

> <vina_affinity_kcal_mol>
-8.4760000000000009

> <vina_rmsd_to_crystal_angstrom>
7.4511000000000003

> <minimizedAffinity>
-8.40700

> <CNNscore>
0.0863327086

> <CNNaffinity>
4.8030567169

> <CNN_VS>
0.4146609008

> <CNNaffinity_variance>
0.9902619720

$$$$
BACE1_verubecestat__canonical_obabel_seed1103_ex32__pose03


 31 33  0  0  0  0  0  0  0  0999 V2000
   24.0480   12.3660   19.9690 C   0  0  0  0  0  0  0  0  0  0  0  0
   23.5750   12.6130   21.2570 C   0  0  0  0  0  0  0  0  0  0  0  0
   22.4590   11.9860   21.7640 C   0  0  0  0  0  0  0  0  0  0  0  0
   21.7420   11.0870   20.9850 C   0  0  0  0  0  0  0  0  0  0  0  0
   22.1990   10.8270   19.7050 C   0  0  0  0  0  0  0  0  0  0  0  0
   23.3380   11.4390   19.2210 C   0  0  0  0  0  0  0  0  0  0  0  0
   23.7820   11.1440   17.9720 F   0  0  0  0  0  0  0  0  0  0  0  0
   27.8160   11.9410   22.7560 C   0  0  0  0  0  0  0  0  0  0  0  0
   27.0570   12.3630   21.5630 N   0  0  0  0  0  0  0  0  0  0  0  0
   26.5770   13.6800   21.3820 C   0  0  0  0  0  0  0  0  0  0  0  0
   27.0080   14.5640   22.3340 N   0  0  0  0  0  0  0  0  0  0  0  0
   25.8170   14.0410   20.3950 N   0  0  0  0  0  0  0  0  0  0  0  0
   25.2860   13.0710   19.4380 C   0  0  0  0  0  0  0  0  0  0  0  0
   24.8840   13.9470   18.2480 C   0  0  0  0  0  0  0  0  0  0  0  0
   26.3910   12.1550   18.9610 C   0  0  0  0  0  0  0  0  0  0  0  0
   27.0280   11.1870   20.3060 S   0  0  0  0  0  0  0  0  0  0  0  0
   28.4070   10.8770   19.9760 O   0  0  0  0  0  0  0  0  0  0  0  0
   26.0740   10.2240   20.7610 O   0  0  0  0  0  0  0  0  0  0  0  0
   26.7270   15.5070   22.2930 H   0  0  0  0  0  0  0  0  0  0  0  0
   27.5990   14.2570   23.0590 H   0  0  0  0  0  0  0  0  0  0  0  0
   22.0880   12.3260   23.0720 N   0  0  0  0  0  0  0  0  0  0  0  0
   22.3400   11.6320   24.2420 C   0  0  0  0  0  0  0  0  0  0  0  0
   22.8330   10.5130   24.3050 O   0  0  0  0  0  0  0  0  0  0  0  0
   21.5840   13.1660   23.1700 H   0  0  0  0  0  0  0  0  0  0  0  0
   22.0030   12.3550   25.4920 C   0  0  0  0  0  0  0  0  0  0  0  0
   20.6970   12.7400   25.7370 C   0  0  0  0  0  0  0  0  0  0  0  0
   20.4390   13.4140   26.9180 C   0  0  0  0  0  0  0  0  0  0  0  0
   21.4700   13.6740   27.8000 C   0  0  0  0  0  0  0  0  0  0  0  0
   21.2690   14.3320   28.9550 F   0  0  0  0  0  0  0  0  0  0  0  0
   22.7380   13.2560   27.4650 C   0  0  0  0  0  0  0  0  0  0  0  0
   23.0190   12.6060   26.3240 N   0  0  0  0  0  0  0  0  0  0  0  0
  8  9  1  0
  9 10  1  0
 10 11  1  0
 10 12  2  0
 12 13  1  0
 13 14  1  0
 13  1  1  0
  1  2  2  0
  2  3  1  0
  3 21  1  0
 21 22  1  0
 22 23  2  0
 22 25  1  0
 25 26  2  0
 26 27  1  0
 27 28  2  0
 28 29  1  0
 28 30  1  0
 30 31  2  0
  3  4  2  0
  4  5  1  0
  5  6  2  0
  6  7  1  0
 13 15  1  0
 15 16  1  0
 16 17  2  0
 16 18  2  0
 16  9  1  0
  6  1  1  0
 31 25  1  0
 11 19  1  0
 11 20  1  0
 21 24  1  0
M  END
> <meeko>
{"is_sidechain": false}

> <source_group>
BACE1 canonical

> <source_system>
BACE1_verubecestat

> <source_run>
canonical_obabel_seed1103_ex32

> <source_seed>
1103

> <vina_pose_rank>
3

> <vina_affinity_kcal_mol>
-8.3499999999999996

> <vina_rmsd_to_crystal_angstrom>
7.0811999999999999

> <minimizedAffinity>
-8.27628

> <CNNscore>
0.0449009426

> <CNNaffinity>
5.2000274658

> <CNN_VS>
0.2334861308

> <CNNaffinity_variance>
0.3356465399

$$$$
BACE1_verubecestat__canonical_obabel_seed1103_ex32__pose04


 31 33  0  0  0  0  0  0  0  0999 V2000
   22.3360   11.7460   20.7830 C   0  0  0  0  0  0  0  0  0  0  0  0
   22.3270   12.1510   22.1170 C   0  0  0  0  0  0  0  0  0  0  0  0
   21.5710   11.5140   23.0750 C   0  0  0  0  0  0  0  0  0  0  0  0
   20.7610   10.4390   22.7310 C   0  0  0  0  0  0  0  0  0  0  0  0
   20.7600   10.0210   21.4120 C   0  0  0  0  0  0  0  0  0  0  0  0
   21.5480   10.6500   20.4680 C   0  0  0  0  0  0  0  0  0  0  0  0
   21.5510   10.2020   19.1860 F   0  0  0  0  0  0  0  0  0  0  0  0
   26.9630   11.4810   21.5980 C   0  0  0  0  0  0  0  0  0  0  0  0
   25.7380   11.8560   20.8650 N   0  0  0  0  0  0  0  0  0  0  0  0
   25.1850   13.1560   20.9050 C   0  0  0  0  0  0  0  0  0  0  0  0
   25.9660   14.0720   21.5560 N   0  0  0  0  0  0  0  0  0  0  0  0
   24.0530   13.4750   20.3570 N   0  0  0  0  0  0  0  0  0  0  0  0
   23.1840   12.4700   19.7480 C   0  0  0  0  0  0  0  0  0  0  0  0
   22.2650   13.3080   18.8540 C   0  0  0  0  0  0  0  0  0  0  0  0
   23.9890   11.5700   18.8370 C   0  0  0  0  0  0  0  0  0  0  0  0
   25.1900   10.6510   19.7650 S   0  0  0  0  0  0  0  0  0  0  0  0
   26.2860   10.3670   18.8570 O   0  0  0  0  0  0  0  0  0  0  0  0
   24.5710    9.6750   20.6080 O   0  0  0  0  0  0  0  0  0  0  0  0
   25.6660   15.0070   21.6350 H   0  0  0  0  0  0  0  0  0  0  0  0
   26.8290   13.7980   21.9430 H   0  0  0  0  0  0  0  0  0  0  0  0
   21.6500   12.0220   24.3780 N   0  0  0  0  0  0  0  0  0  0  0  0
   20.6930   12.7330   25.0800 C   0  0  0  0  0  0  0  0  0  0  0  0
   19.6420   13.1510   24.6120 O   0  0  0  0  0  0  0  0  0  0  0  0
   22.4950   11.8520   24.8540 H   0  0  0  0  0  0  0  0  0  0  0  0
   20.9930   12.9500   26.5160 C   0  0  0  0  0  0  0  0  0  0  0  0
   21.5210   11.9200   27.2750 C   0  0  0  0  0  0  0  0  0  0  0  0
   21.7790   12.1770   28.6100 C   0  0  0  0  0  0  0  0  0  0  0  0
   21.5120   13.4270   29.1340 C   0  0  0  0  0  0  0  0  0  0  0  0
   21.7380   13.7210   30.4260 F   0  0  0  0  0  0  0  0  0  0  0  0
   20.9820   14.3860   28.3000 C   0  0  0  0  0  0  0  0  0  0  0  0
   20.7150   14.1640   27.0030 N   0  0  0  0  0  0  0  0  0  0  0  0
  8  9  1  0
  9 10  1  0
 10 11  1  0
 10 12  2  0
 12 13  1  0
 13 14  1  0
 13  1  1  0
  1  2  2  0
  2  3  1  0
  3 21  1  0
 21 22  1  0
 22 23  2  0
 22 25  1  0
 25 26  2  0
 26 27  1  0
 27 28  2  0
 28 29  1  0
 28 30  1  0
 30 31  2  0
  3  4  2  0
  4  5  1  0
  5  6  2  0
  6  7  1  0
 13 15  1  0
 15 16  1  0
 16 17  2  0
 16 18  2  0
 16  9  1  0
  6  1  1  0
 31 25  1  0
 11 19  1  0
 11 20  1  0
 21 24  1  0
M  END
> <meeko>
{"is_sidechain": false}

> <source_group>
BACE1 canonical

> <source_system>
BACE1_verubecestat

> <source_run>
canonical_obabel_seed1103_ex32

> <source_seed>
1103

> <vina_pose_rank>
4

> <vina_affinity_kcal_mol>
-8.2919999999999998

> <vina_rmsd_to_crystal_angstrom>
7.3476999999999997

> <minimizedAffinity>
-8.28363

> <CNNscore>
0.0867658183

> <CNNaffinity>
5.6117377281

> <CNN_VS>
0.4869070053

> <CNNaffinity_variance>
0.1911838055

$$$$
BACE1_verubecestat__canonical_obabel_seed1103_ex32__pose05


 31 33  0  0  0  0  0  0  0  0999 V2000
   24.3610   12.0930   20.3680 C   0  0  0  0  0  0  0  0  0  0  0  0
   23.9890   11.9380   21.7030 C   0  0  0  0  0  0  0  0  0  0  0  0
   22.7360   12.2760   22.1620 C   0  0  0  0  0  0  0  0  0  0  0  0
   21.7910   12.8140   21.2970 C   0  0  0  0  0  0  0  0  0  0  0  0
   22.1420   12.9710   19.9680 C   0  0  0  0  0  0  0  0  0  0  0  0
   23.3920   12.5980   19.5150 C   0  0  0  0  0  0  0  0  0  0  0  0
   23.7010   12.7350   18.2000 F   0  0  0  0  0  0  0  0  0  0  0  0
   27.2050   15.7700   19.6340 C   0  0  0  0  0  0  0  0  0  0  0  0
   26.8280   14.3440   19.7090 N   0  0  0  0  0  0  0  0  0  0  0  0
   26.5310   13.5660   18.5680 C   0  0  0  0  0  0  0  0  0  0  0  0
   26.7700   14.2050   17.3810 N   0  0  0  0  0  0  0  0  0  0  0  0
   26.0940   12.3450   18.6210 N   0  0  0  0  0  0  0  0  0  0  0  0
   25.7520   11.7070   19.8910 C   0  0  0  0  0  0  0  0  0  0  0  0
   25.7580   10.2170   19.5380 C   0  0  0  0  0  0  0  0  0  0  0  0
   26.8590   11.9280   20.8980 C   0  0  0  0  0  0  0  0  0  0  0  0
   27.0300   13.6540   21.2730 S   0  0  0  0  0  0  0  0  0  0  0  0
   28.4150   13.8590   21.6580 O   0  0  0  0  0  0  0  0  0  0  0  0
   25.9090   14.1470   22.0110 O   0  0  0  0  0  0  0  0  0  0  0  0
   26.5930   13.7440   16.5300 H   0  0  0  0  0  0  0  0  0  0  0  0
   27.1190   15.1260   17.3790 H   0  0  0  0  0  0  0  0  0  0  0  0
   22.4910   12.0730   23.5260 N   0  0  0  0  0  0  0  0  0  0  0  0
   23.2270   12.5280   24.6060 C   0  0  0  0  0  0  0  0  0  0  0  0
   24.3120   13.0900   24.5320 O   0  0  0  0  0  0  0  0  0  0  0  0
   21.6940   11.5390   23.7450 H   0  0  0  0  0  0  0  0  0  0  0  0
   22.5950   12.3270   25.9330 C   0  0  0  0  0  0  0  0  0  0  0  0
   21.5180   11.4680   26.0620 C   0  0  0  0  0  0  0  0  0  0  0  0
   20.9660   11.3200   27.3220 C   0  0  0  0  0  0  0  0  0  0  0  0
   21.4970   12.0150   28.3920 C   0  0  0  0  0  0  0  0  0  0  0  0
   20.9890   11.9110   29.6320 F   0  0  0  0  0  0  0  0  0  0  0  0
   22.5660   12.8510   28.1620 C   0  0  0  0  0  0  0  0  0  0  0  0
   23.1190   13.0200   26.9500 N   0  0  0  0  0  0  0  0  0  0  0  0
  8  9  1  0
  9 10  1  0
 10 11  1  0
 10 12  2  0
 12 13  1  0
 13 14  1  0
 13  1  1  0
  1  2  2  0
  2  3  1  0
  3 21  1  0
 21 22  1  0
 22 23  2  0
 22 25  1  0
 25 26  2  0
 26 27  1  0
 27 28  2  0
 28 29  1  0
 28 30  1  0
 30 31  2  0
  3  4  2  0
  4  5  1  0
  5  6  2  0
  6  7  1  0
 13 15  1  0
 15 16  1  0
 16 17  2  0
 16 18  2  0
 16  9  1  0
  6  1  1  0
 31 25  1  0
 11 19  1  0
 11 20  1  0
 21 24  1  0
M  END
> <meeko>
{"is_sidechain": false}

> <source_group>
BACE1 canonical

> <source_system>
BACE1_verubecestat

> <source_run>
canonical_obabel_seed1103_ex32

> <source_seed>
1103

> <vina_pose_rank>
5

> <vina_affinity_kcal_mol>
-8.1910000000000007

> <vina_rmsd_to_crystal_angstrom>
7.1409000000000002

> <minimizedAffinity>
-8.93763

> <CNNscore>
0.2662161887

> <CNNaffinity>
5.5953421593

> <CNN_VS>
1.4895706177

> <CNNaffinity_variance>
0.5264816284

$$$$
BACE1_verubecestat__canonical_obabel_seed1103_ex32__pose06


 31 33  0  0  0  0  0  0  0  0999 V2000
   26.0250   12.7000   20.3630 C   0  0  0  0  0  0  0  0  0  0  0  0
   25.1190   12.7140   21.4230 C   0  0  0  0  0  0  0  0  0  0  0  0
   24.2120   11.7000   21.6300 C   0  0  0  0  0  0  0  0  0  0  0  0
   24.1550   10.6190   20.7590 C   0  0  0  0  0  0  0  0  0  0  0  0
   25.0490   10.5860   19.7040 C   0  0  0  0  0  0  0  0  0  0  0  0
   25.9750   11.5950   19.5270 C   0  0  0  0  0  0  0  0  0  0  0  0
   26.8600   11.5250   18.5000 F   0  0  0  0  0  0  0  0  0  0  0  0
   28.5200   13.7440   24.2150 C   0  0  0  0  0  0  0  0  0  0  0  0
   28.1040   13.8500   22.8020 N   0  0  0  0  0  0  0  0  0  0  0  0
   27.2640   14.8790   22.3220 C   0  0  0  0  0  0  0  0  0  0  0  0
   26.9940   15.8520   23.2460 N   0  0  0  0  0  0  0  0  0  0  0  0
   26.8010   14.9260   21.1110 N   0  0  0  0  0  0  0  0  0  0  0  0
   27.0170   13.8350   20.1630 C   0  0  0  0  0  0  0  0  0  0  0  0
   26.7440   14.4970   18.8090 C   0  0  0  0  0  0  0  0  0  0  0  0
   28.4720   13.4220   20.1680 C   0  0  0  0  0  0  0  0  0  0  0  0
   28.9310   12.7650   21.7520 S   0  0  0  0  0  0  0  0  0  0  0  0
   30.3530   13.0160   21.9080 O   0  0  0  0  0  0  0  0  0  0  0  0
   28.3060   11.5040   22.0010 O   0  0  0  0  0  0  0  0  0  0  0  0
   26.4170   16.6130   23.0050 H   0  0  0  0  0  0  0  0  0  0  0  0
   27.3780   15.7920   24.1510 H   0  0  0  0  0  0  0  0  0  0  0  0
   23.3560   11.8380   22.7300 N   0  0  0  0  0  0  0  0  0  0  0  0
   22.0860   12.3860   22.7650 C   0  0  0  0  0  0  0  0  0  0  0  0
   21.5450   12.9690   21.8340 O   0  0  0  0  0  0  0  0  0  0  0  0
   23.7030   11.5020   23.5880 H   0  0  0  0  0  0  0  0  0  0  0  0
   21.3490   12.1970   24.0380 C   0  0  0  0  0  0  0  0  0  0  0  0
   20.1230   11.5540   24.0370 C   0  0  0  0  0  0  0  0  0  0  0  0
   19.4790   11.4060   25.2530 C   0  0  0  0  0  0  0  0  0  0  0  0
   20.0650   11.8900   26.4060 C   0  0  0  0  0  0  0  0  0  0  0  0
   19.4730   11.7780   27.6070 F   0  0  0  0  0  0  0  0  0  0  0  0
   21.2850   12.5210   26.3040 C   0  0  0  0  0  0  0  0  0  0  0  0
   21.9320   12.6840   25.1380 N   0  0  0  0  0  0  0  0  0  0  0  0
  8  9  1  0
  9 10  1  0
 10 11  1  0
 10 12  2  0
 12 13  1  0
 13 14  1  0
 13  1  1  0
  1  2  2  0
  2  3  1  0
  3 21  1  0
 21 22  1  0
 22 23  2  0
 22 25  1  0
 25 26  2  0
 26 27  1  0
 27 28  2  0
 28 29  1  0
 28 30  1  0
 30 31  2  0
  3  4  2  0
  4  5  1  0
  5  6  2  0
  6  7  1  0
 13 15  1  0
 15 16  1  0
 16 17  2  0
 16 18  2  0
 16  9  1  0
  6  1  1  0
 31 25  1  0
 11 19  1  0
 11 20  1  0
 21 24  1  0
M  END
> <meeko>
{"is_sidechain": false}

> <source_group>
BACE1 canonical

> <source_system>
BACE1_verubecestat

> <source_run>
canonical_obabel_seed1103_ex32

> <source_seed>
1103

> <vina_pose_rank>
6

> <vina_affinity_kcal_mol>
-8.0039999999999996

> <vina_rmsd_to_crystal_angstrom>
7.5697999999999999

> <minimizedAffinity>
-7.97671

> <CNNscore>
0.0227823369

> <CNNaffinity>
4.4451446533

> <CNN_VS>
0.1012707800

> <CNNaffinity_variance>
0.7213172317

$$$$
BACE1_verubecestat__canonical_obabel_seed1103_ex32__pose07


 31 33  0  0  0  0  0  0  0  0999 V2000
   24.0960   12.1270   20.6870 C   0  0  0  0  0  0  0  0  0  0  0  0
   24.6990   12.9140   21.6670 C   0  0  0  0  0  0  0  0  0  0  0  0
   26.0260   12.7770   22.0080 C   0  0  0  0  0  0  0  0  0  0  0  0
   26.8160   11.8170   21.3890 C   0  0  0  0  0  0  0  0  0  0  0  0
   26.2350   11.0290   20.4110 C   0  0  0  0  0  0  0  0  0  0  0  0
   24.9110   11.1990   20.0570 C   0  0  0  0  0  0  0  0  0  0  0  0
   24.3730   10.4320   19.0740 F   0  0  0  0  0  0  0  0  0  0  0  0
   21.1770    9.5440   23.3250 C   0  0  0  0  0  0  0  0  0  0  0  0
   21.5540   10.5240   22.2880 N   0  0  0  0  0  0  0  0  0  0  0  0
   21.5590   10.2210   20.9080 C   0  0  0  0  0  0  0  0  0  0  0  0
   21.0390    8.9910   20.6080 N   0  0  0  0  0  0  0  0  0  0  0  0
   21.9890   11.0330   19.9920 N   0  0  0  0  0  0  0  0  0  0  0  0
   22.6280   12.3040   20.3310 C   0  0  0  0  0  0  0  0  0  0  0  0
   22.5290   13.0970   19.0250 C   0  0  0  0  0  0  0  0  0  0  0  0
   21.8030   13.0410   21.3620 C   0  0  0  0  0  0  0  0  0  0  0  0
   21.7380   12.1290   22.8830 S   0  0  0  0  0  0  0  0  0  0  0  0
   20.4910   12.4930   23.5310 O   0  0  0  0  0  0  0  0  0  0  0  0
   23.0080   12.1060   23.5390 O   0  0  0  0  0  0  0  0  0  0  0  0
   20.9990    8.6890   19.6710 H   0  0  0  0  0  0  0  0  0  0  0  0
   20.7050    8.4080   21.3280 H   0  0  0  0  0  0  0  0  0  0  0  0
   26.5070   13.6290   23.0110 N   0  0  0  0  0  0  0  0  0  0  0  0
   26.2690   13.5700   24.3720 C   0  0  0  0  0  0  0  0  0  0  0  0
   25.4720   12.8160   24.9160 O   0  0  0  0  0  0  0  0  0  0  0  0
   27.0900   14.3630   22.7080 H   0  0  0  0  0  0  0  0  0  0  0  0
   27.0910   14.4860   25.1990 C   0  0  0  0  0  0  0  0  0  0  0  0
   26.5220   15.6260   25.7410 C   0  0  0  0  0  0  0  0  0  0  0  0
   27.3360   16.4470   26.5020 C   0  0  0  0  0  0  0  0  0  0  0  0
   28.6610   16.1100   26.6990 C   0  0  0  0  0  0  0  0  0  0  0  0
   29.4910   16.8800   27.4230 F   0  0  0  0  0  0  0  0  0  0  0  0
   29.1370   14.9580   26.1140 C   0  0  0  0  0  0  0  0  0  0  0  0
   28.3730   14.1460   25.3650 N   0  0  0  0  0  0  0  0  0  0  0  0
  8  9  1  0
  9 10  1  0
 10 11  1  0
 10 12  2  0
 12 13  1  0
 13 14  1  0
 13  1  1  0
  1  2  2  0
  2  3  1  0
  3 21  1  0
 21 22  1  0
 22 23  2  0
 22 25  1  0
 25 26  2  0
 26 27  1  0
 27 28  2  0
 28 29  1  0
 28 30  1  0
 30 31  2  0
  3  4  2  0
  4  5  1  0
  5  6  2  0
  6  7  1  0
 13 15  1  0
 15 16  1  0
 16 17  2  0
 16 18  2  0
 16  9  1  0
  6  1  1  0
 31 25  1  0
 11 19  1  0
 11 20  1  0
 21 24  1  0
M  END
> <meeko>
{"is_sidechain": false}

> <source_group>
BACE1 canonical

> <source_system>
BACE1_verubecestat

> <source_run>
canonical_obabel_seed1103_ex32

> <source_seed>
1103

> <vina_pose_rank>
7

> <vina_affinity_kcal_mol>
-7.9450000000000003

> <vina_rmsd_to_crystal_angstrom>
4.8042999999999996

> <minimizedAffinity>
-8.83503

> <CNNscore>
0.1437770128

> <CNNaffinity>
5.4207305908

> <CNN_VS>
0.7793764472

> <CNNaffinity_variance>
0.4701295793

$$$$
BACE1_verubecestat__canonical_obabel_seed1103_ex32__pose08


 31 33  0  0  0  0  0  0  0  0999 V2000
   26.0520   12.2340   19.9790 C   0  0  0  0  0  0  0  0  0  0  0  0
   26.3480   12.7620   21.2350 C   0  0  0  0  0  0  0  0  0  0  0  0
   27.1460   13.8720   21.3980 C   0  0  0  0  0  0  0  0  0  0  0  0
   27.7100   14.5000   20.2950 C   0  0  0  0  0  0  0  0  0  0  0  0
   27.4250   13.9920   19.0400 C   0  0  0  0  0  0  0  0  0  0  0  0
   26.5970   12.8970   18.8900 C   0  0  0  0  0  0  0  0  0  0  0  0
   26.3090   12.4360   17.6460 F   0  0  0  0  0  0  0  0  0  0  0  0
   21.8040   12.7160   21.9450 C   0  0  0  0  0  0  0  0  0  0  0  0
   22.8740   12.0410   21.1860 N   0  0  0  0  0  0  0  0  0  0  0  0
   23.6920   11.0310   21.7400 C   0  0  0  0  0  0  0  0  0  0  0  0
   23.3060   10.6280   22.9900 N   0  0  0  0  0  0  0  0  0  0  0  0
   24.7050   10.5040   21.1250 N   0  0  0  0  0  0  0  0  0  0  0  0
   25.1650   11.0080   19.8310 C   0  0  0  0  0  0  0  0  0  0  0  0
   26.0090    9.8490   19.2920 C   0  0  0  0  0  0  0  0  0  0  0  0
   23.9910   11.1760   18.8920 C   0  0  0  0  0  0  0  0  0  0  0  0
   22.8700   12.4090   19.5040 S   0  0  0  0  0  0  0  0  0  0  0  0
   21.5560   12.0640   18.9920 O   0  0  0  0  0  0  0  0  0  0  0  0
   23.4400   13.7180   19.4390 O   0  0  0  0  0  0  0  0  0  0  0  0
   23.8140    9.9280   23.4600 H   0  0  0  0  0  0  0  0  0  0  0  0
   22.5210   11.0380   23.4200 H   0  0  0  0  0  0  0  0  0  0  0  0
   27.3660   14.2980   22.7140 N   0  0  0  0  0  0  0  0  0  0  0  0
   28.2960   13.8260   23.6230 C   0  0  0  0  0  0  0  0  0  0  0  0
   29.0080   12.8440   23.4570 O   0  0  0  0  0  0  0  0  0  0  0  0
   26.7860   15.0270   23.0320 H   0  0  0  0  0  0  0  0  0  0  0  0
   28.4280   14.6240   24.8670 C   0  0  0  0  0  0  0  0  0  0  0  0
   27.3520   15.3600   25.3320 C   0  0  0  0  0  0  0  0  0  0  0  0
   27.5310   16.0880   26.4950 C   0  0  0  0  0  0  0  0  0  0  0  0
   28.7500   16.0560   27.1460 C   0  0  0  0  0  0  0  0  0  0  0  0
   28.9730   16.7530   28.2730 F   0  0  0  0  0  0  0  0  0  0  0  0
   29.7620   15.2980   26.6020 C   0  0  0  0  0  0  0  0  0  0  0  0
   29.6190   14.5860   25.4710 N   0  0  0  0  0  0  0  0  0  0  0  0
  8  9  1  0
  9 10  1  0
 10 11  1  0
 10 12  2  0
 12 13  1  0
 13 14  1  0
 13  1  1  0
  1  2  2  0
  2  3  1  0
  3 21  1  0
 21 22  1  0
 22 23  2  0
 22 25  1  0
 25 26  2  0
 26 27  1  0
 27 28  2  0
 28 29  1  0
 28 30  1  0
 30 31  2  0
  3  4  2  0
  4  5  1  0
  5  6  2  0
  6  7  1  0
 13 15  1  0
 15 16  1  0
 16 17  2  0
 16 18  2  0
 16  9  1  0
  6  1  1  0
 31 25  1  0
 11 19  1  0
 11 20  1  0
 21 24  1  0
M  END
> <meeko>
{"is_sidechain": false}

> <source_group>
BACE1 canonical

> <source_system>
BACE1_verubecestat

> <source_run>
canonical_obabel_seed1103_ex32

> <source_seed>
1103

> <vina_pose_rank>
8

> <vina_affinity_kcal_mol>
-7.8449999999999998

> <vina_rmsd_to_crystal_angstrom>
5.2885

> <minimizedAffinity>
-7.78541

> <CNNscore>
0.0896066874

> <CNNaffinity>
4.8506126404

> <CNN_VS>
0.4346473217

> <CNNaffinity_variance>
0.7475046515

$$$$
BACE1_verubecestat__canonical_obabel_seed1103_ex32__pose09


 31 33  0  0  0  0  0  0  0  0999 V2000
   19.3560   12.1810   25.0530 C   0  0  0  0  0  0  0  0  0  0  0  0
   20.2990   12.5470   24.0940 C   0  0  0  0  0  0  0  0  0  0  0  0
   20.7570   11.6690   23.1380 C   0  0  0  0  0  0  0  0  0  0  0  0
   20.3000   10.3570   23.1120 C   0  0  0  0  0  0  0  0  0  0  0  0
   19.3610    9.9770   24.0550 C   0  0  0  0  0  0  0  0  0  0  0  0
   18.8870   10.8780   24.9870 C   0  0  0  0  0  0  0  0  0  0  0  0
   17.9440   10.4880   25.8820 F   0  0  0  0  0  0  0  0  0  0  0  0
   21.7320   12.0030   29.1110 C   0  0  0  0  0  0  0  0  0  0  0  0
   20.7280   12.5040   28.1520 N   0  0  0  0  0  0  0  0  0  0  0  0
   19.3550   12.1780   28.2340 C   0  0  0  0  0  0  0  0  0  0  0  0
   19.0150   11.4840   29.3640 N   0  0  0  0  0  0  0  0  0  0  0  0
   18.4790   12.5200   27.3410 N   0  0  0  0  0  0  0  0  0  0  0  0
   18.8680   13.1770   26.0940 C   0  0  0  0  0  0  0  0  0  0  0  0
   17.5540   13.7960   25.6080 C   0  0  0  0  0  0  0  0  0  0  0  0
   19.8160   14.3190   26.3830 C   0  0  0  0  0  0  0  0  0  0  0  0
   21.3290   13.7150   27.0860 S   0  0  0  0  0  0  0  0  0  0  0  0
   21.8600   14.7860   27.9090 O   0  0  0  0  0  0  0  0  0  0  0  0
   22.0980   12.9780   26.1320 O   0  0  0  0  0  0  0  0  0  0  0  0
   18.0810   11.2120   29.5110 H   0  0  0  0  0  0  0  0  0  0  0  0
   19.7050   11.2580   30.0290 H   0  0  0  0  0  0  0  0  0  0  0  0
   21.7070   12.1630   22.2350 N   0  0  0  0  0  0  0  0  0  0  0  0
   22.5680   11.4490   21.4200 C   0  0  0  0  0  0  0  0  0  0  0  0
   22.7270   10.2350   21.4560 O   0  0  0  0  0  0  0  0  0  0  0  0
   21.7700   13.1430   22.1710 H   0  0  0  0  0  0  0  0  0  0  0  0
   23.3080   12.2550   20.4200 C   0  0  0  0  0  0  0  0  0  0  0  0
   22.6900   12.6270   19.2380 C   0  0  0  0  0  0  0  0  0  0  0  0
   23.4270   13.3770   18.3390 C   0  0  0  0  0  0  0  0  0  0  0  0
   24.7290   13.7290   18.6410 C   0  0  0  0  0  0  0  0  0  0  0  0
   25.4860   14.4480   17.7960 F   0  0  0  0  0  0  0  0  0  0  0  0
   25.2580   13.3060   19.8400 C   0  0  0  0  0  0  0  0  0  0  0  0
   24.5690   12.5730   20.7290 N   0  0  0  0  0  0  0  0  0  0  0  0
  8  9  1  0
  9 10  1  0
 10 11  1  0
 10 12  2  0
 12 13  1  0
 13 14  1  0
 13  1  1  0
  1  2  2  0
  2  3  1  0
  3 21  1  0
 21 22  1  0
 22 23  2  0
 22 25  1  0
 25 26  2  0
 26 27  1  0
 27 28  2  0
 28 29  1  0
 28 30  1  0
 30 31  2  0
  3  4  2  0
  4  5  1  0
  5  6  2  0
  6  7  1  0
 13 15  1  0
 15 16  1  0
 16 17  2  0
 16 18  2  0
 16  9  1  0
  6  1  1  0
 31 25  1  0
 11 19  1  0
 11 20  1  0
 21 24  1  0
M  END
> <meeko>
{"is_sidechain": false}

> <source_group>
BACE1 canonical

> <source_system>
BACE1_verubecestat

> <source_run>
canonical_obabel_seed1103_ex32

> <source_seed>
1103

> <vina_pose_rank>
9

> <vina_affinity_kcal_mol>
-7.7759999999999998

> <vina_rmsd_to_crystal_angstrom>
6.3902999999999999

> <minimizedAffinity>
-8.72958

> <CNNscore>
0.0583466329

> <CNNaffinity>
5.0937089920

> <CNN_VS>
0.2972007692

> <CNNaffinity_variance>
0.5638987422

$$$$
BACE1_verubecestat__canonical_obabel_seed1103_ex32__pose10


 31 33  0  0  0  0  0  0  0  0999 V2000
   20.0820   14.1130   26.8800 C   0  0  0  0  0  0  0  0  0  0  0  0
   20.0520   13.4580   25.6500 C   0  0  0  0  0  0  0  0  0  0  0  0
   20.8700   12.3880   25.3650 C   0  0  0  0  0  0  0  0  0  0  0  0
   21.7860   11.9330   26.3050 C   0  0  0  0  0  0  0  0  0  0  0  0
   21.8280   12.5690   27.5330 C   0  0  0  0  0  0  0  0  0  0  0  0
   20.9780   13.6200   27.8160 C   0  0  0  0  0  0  0  0  0  0  0  0
   21.0190   14.2080   29.0400 F   0  0  0  0  0  0  0  0  0  0  0  0
   15.5630   13.2830   25.8610 C   0  0  0  0  0  0  0  0  0  0  0  0
   16.7180   14.0580   26.3560 N   0  0  0  0  0  0  0  0  0  0  0  0
   17.3340   15.0860   25.6080 C   0  0  0  0  0  0  0  0  0  0  0  0
   16.6720   15.4040   24.4520 N   0  0  0  0  0  0  0  0  0  0  0  0
   18.4130   15.7010   25.9800 N   0  0  0  0  0  0  0  0  0  0  0  0
   19.1630   15.2900   27.1660 C   0  0  0  0  0  0  0  0  0  0  0  0
   20.0180   16.5210   27.4760 C   0  0  0  0  0  0  0  0  0  0  0  0
   18.2210   15.0980   28.3340 C   0  0  0  0  0  0  0  0  0  0  0  0
   17.0850   13.7730   28.0140 S   0  0  0  0  0  0  0  0  0  0  0  0
   15.8840   14.0630   28.7760 O   0  0  0  0  0  0  0  0  0  0  0  0
   17.7440   12.5040   28.0050 O   0  0  0  0  0  0  0  0  0  0  0  0
   17.0240   16.1100   23.8620 H   0  0  0  0  0  0  0  0  0  0  0  0
   15.8450   14.9280   24.2110 H   0  0  0  0  0  0  0  0  0  0  0  0
   20.7420   11.8220   24.0900 N   0  0  0  0  0  0  0  0  0  0  0  0
   21.5980   11.9390   23.0090 C   0  0  0  0  0  0  0  0  0  0  0  0
   22.5690   12.6830   22.9580 O   0  0  0  0  0  0  0  0  0  0  0  0
   19.9400   11.2700   23.9440 H   0  0  0  0  0  0  0  0  0  0  0  0
   21.2960   11.0490   21.8620 C   0  0  0  0  0  0  0  0  0  0  0  0
   21.7250   11.3900   20.5910 C   0  0  0  0  0  0  0  0  0  0  0  0
   21.4130   10.5240   19.5580 C   0  0  0  0  0  0  0  0  0  0  0  0
   20.7030    9.3680   19.8190 C   0  0  0  0  0  0  0  0  0  0  0  0
   20.3700    8.5020   18.8470 F   0  0  0  0  0  0  0  0  0  0  0  0
   20.3150    9.1180   21.1160 C   0  0  0  0  0  0  0  0  0  0  0  0
   20.5970    9.9420   22.1380 N   0  0  0  0  0  0  0  0  0  0  0  0
  8  9  1  0
  9 10  1  0
 10 11  1  0
 10 12  2  0
 12 13  1  0
 13 14  1  0
 13  1  1  0
  1  2  2  0
  2  3  1  0
  3 21  1  0
 21 22  1  0
 22 23  2  0
 22 25  1  0
 25 26  2  0
 26 27  1  0
 27 28  2  0
 28 29  1  0
 28 30  1  0
 30 31  2  0
  3  4  2  0
  4  5  1  0
  5  6  2  0
  6  7  1  0
 13 15  1  0
 15 16  1  0
 16 17  2  0
 16 18  2  0
 16  9  1  0
  6  1  1  0
 31 25  1  0
 11 19  1  0
 11 20  1  0
 21 24  1  0
M  END
> <meeko>
{"is_sidechain": false}

> <source_group>
BACE1 canonical

> <source_system>
BACE1_verubecestat

> <source_run>
canonical_obabel_seed1103_ex32

> <source_seed>
1103

> <vina_pose_rank>
10

> <vina_affinity_kcal_mol>
-7.7169999999999996

> <vina_rmsd_to_crystal_angstrom>
8.3051999999999992

> <minimizedAffinity>
-7.70453

> <CNNscore>
0.0571817756

> <CNNaffinity>
5.2072887421

> <CNN_VS>
0.2977620065

> <CNNaffinity_variance>
0.2897355258

$$$$
BACE1_verubecestat__canonical_obabel_seed1103_ex32__pose11


 31 33  0  0  0  0  0  0  0  0999 V2000
   25.4000   13.0070   19.8540 C   0  0  0  0  0  0  0  0  0  0  0  0
   24.4970   13.0820   20.9140 C   0  0  0  0  0  0  0  0  0  0  0  0
   23.4290   12.2220   21.0340 C   0  0  0  0  0  0  0  0  0  0  0  0
   23.2000   11.2470   20.0710 C   0  0  0  0  0  0  0  0  0  0  0  0
   24.0880   11.1560   19.0140 C   0  0  0  0  0  0  0  0  0  0  0  0
   25.1740   12.0050   18.9240 C   0  0  0  0  0  0  0  0  0  0  0  0
   26.0470   11.8760   17.8920 F   0  0  0  0  0  0  0  0  0  0  0  0
   28.1490   13.0660   23.6740 C   0  0  0  0  0  0  0  0  0  0  0  0
   27.7180   13.4350   22.3110 N   0  0  0  0  0  0  0  0  0  0  0  0
   27.0610   14.6500   22.0130 C   0  0  0  0  0  0  0  0  0  0  0  0
   26.9960   15.5190   23.0690 N   0  0  0  0  0  0  0  0  0  0  0  0
   26.5800   14.9430   20.8440 N   0  0  0  0  0  0  0  0  0  0  0  0
   26.5720   13.9710   19.7520 C   0  0  0  0  0  0  0  0  0  0  0  0
   26.3820   14.8500   18.5130 C   0  0  0  0  0  0  0  0  0  0  0  0
   27.9300   13.3170   19.6280 C   0  0  0  0  0  0  0  0  0  0  0  0
   28.3100   12.3790   21.0870 S   0  0  0  0  0  0  0  0  0  0  0  0
   29.7570   12.3580   21.2000 O   0  0  0  0  0  0  0  0  0  0  0  0
   27.4780   11.2220   21.2020 O   0  0  0  0  0  0  0  0  0  0  0  0
   26.5560   16.3930   22.9600 H   0  0  0  0  0  0  0  0  0  0  0  0
   27.3880   15.2700   23.9370 H   0  0  0  0  0  0  0  0  0  0  0  0
   22.5960   12.4060   22.1450 N   0  0  0  0  0  0  0  0  0  0  0  0
   22.4690   11.6010   23.2630 C   0  0  0  0  0  0  0  0  0  0  0  0
   22.9880   10.5020   23.4030 O   0  0  0  0  0  0  0  0  0  0  0  0
   22.0290   13.2100   22.1270 H   0  0  0  0  0  0  0  0  0  0  0  0
   21.6590   12.1740   24.3660 C   0  0  0  0  0  0  0  0  0  0  0  0
   20.3980   12.6830   24.1050 C   0  0  0  0  0  0  0  0  0  0  0  0
   19.6880   13.2070   25.1710 C   0  0  0  0  0  0  0  0  0  0  0  0
   20.2420   13.2030   26.4360 C   0  0  0  0  0  0  0  0  0  0  0  0
   19.5930   13.7080   27.4990 F   0  0  0  0  0  0  0  0  0  0  0  0
   21.5050   12.6790   26.5940 C   0  0  0  0  0  0  0  0  0  0  0  0
   22.2210   12.1690   25.5790 N   0  0  0  0  0  0  0  0  0  0  0  0
  8  9  1  0
  9 10  1  0
 10 11  1  0
 10 12  2  0
 12 13  1  0
 13 14  1  0
 13  1  1  0
  1  2  2  0
  2  3  1  0
  3 21  1  0
 21 22  1  0
 22 23  2  0
 22 25  1  0
 25 26  2  0
 26 27  1  0
 27 28  2  0
 28 29  1  0
 28 30  1  0
 30 31  2  0
  3  4  2  0
  4  5  1  0
  5  6  2  0
  6  7  1  0
 13 15  1  0
 15 16  1  0
 16 17  2  0
 16 18  2  0
 16  9  1  0
  6  1  1  0
 31 25  1  0
 11 19  1  0
 11 20  1  0
 21 24  1  0
M  END
> <meeko>
{"is_sidechain": false}

> <source_group>
BACE1 canonical

> <source_system>
BACE1_verubecestat

> <source_run>
canonical_obabel_seed1103_ex32

> <source_seed>
1103

> <vina_pose_rank>
11

> <vina_affinity_kcal_mol>
-7.6379999999999999

> <vina_rmsd_to_crystal_angstrom>
7.4424000000000001

> <minimizedAffinity>
-7.56790

> <CNNscore>
0.0247148965

> <CNNaffinity>
4.6227889061

> <CNN_VS>
0.1142517477

> <CNNaffinity_variance>
0.5470133424

$$$$
BACE1_verubecestat__canonical_obabel_seed1103_ex32__pose12


 31 33  0  0  0  0  0  0  0  0999 V2000
   27.0390   14.0980   21.4020 C   0  0  0  0  0  0  0  0  0  0  0  0
   25.8890   13.7740   22.1220 C   0  0  0  0  0  0  0  0  0  0  0  0
   25.2260   12.5800   21.9520 C   0  0  0  0  0  0  0  0  0  0  0  0
   25.6780   11.6510   21.0240 C   0  0  0  0  0  0  0  0  0  0  0  0
   26.8200   11.9530   20.3030 C   0  0  0  0  0  0  0  0  0  0  0  0
   27.4930   13.1420   20.5070 C   0  0  0  0  0  0  0  0  0  0  0  0
   28.6270   13.4020   19.8080 F   0  0  0  0  0  0  0  0  0  0  0  0
   28.3240   14.8700   25.8640 C   0  0  0  0  0  0  0  0  0  0  0  0
   28.2090   15.1560   24.4200 N   0  0  0  0  0  0  0  0  0  0  0  0
   27.2710   16.0690   23.8880 C   0  0  0  0  0  0  0  0  0  0  0  0
   26.5850   16.7770   24.8380 N   0  0  0  0  0  0  0  0  0  0  0  0
   27.0820   16.2520   22.6180 N   0  0  0  0  0  0  0  0  0  0  0  0
   27.7510   15.4250   21.6150 C   0  0  0  0  0  0  0  0  0  0  0  0
   27.6260   16.2630   20.3400 C   0  0  0  0  0  0  0  0  0  0  0  0
   29.2260   15.3160   21.9310 C   0  0  0  0  0  0  0  0  0  0  0  0
   29.4770   14.4770   23.4750 S   0  0  0  0  0  0  0  0  0  0  0  0
   30.7300   14.9710   24.0170 O   0  0  0  0  0  0  0  0  0  0  0  0
   29.1320   13.0920   23.3840 O   0  0  0  0  0  0  0  0  0  0  0  0
   25.9090   17.4390   24.5660 H   0  0  0  0  0  0  0  0  0  0  0  0
   26.7680   16.6240   25.7940 H   0  0  0  0  0  0  0  0  0  0  0  0
   24.0820   12.3810   22.7360 N   0  0  0  0  0  0  0  0  0  0  0  0
   22.7560   12.5080   22.3640 C   0  0  0  0  0  0  0  0  0  0  0  0
   22.3640   12.9530   21.2920 O   0  0  0  0  0  0  0  0  0  0  0  0
   24.2430   12.1160   23.6700 H   0  0  0  0  0  0  0  0  0  0  0  0
   21.7690   12.0240   23.3590 C   0  0  0  0  0  0  0  0  0  0  0  0
   20.8120   11.0960   22.9880 C   0  0  0  0  0  0  0  0  0  0  0  0
   19.9150   10.6800   23.9570 C   0  0  0  0  0  0  0  0  0  0  0  0
   20.0020   11.1880   25.2390 C   0  0  0  0  0  0  0  0  0  0  0  0
   19.1490   10.8210   26.2100 F   0  0  0  0  0  0  0  0  0  0  0  0
   20.9860   12.1120   25.5100 C   0  0  0  0  0  0  0  0  0  0  0  0
   21.8660   12.5390   24.5890 N   0  0  0  0  0  0  0  0  0  0  0  0
  8  9  1  0
  9 10  1  0
 10 11  1  0
 10 12  2  0
 12 13  1  0
 13 14  1  0
 13  1  1  0
  1  2  2  0
  2  3  1  0
  3 21  1  0
 21 22  1  0
 22 23  2  0
 22 25  1  0
 25 26  2  0
 26 27  1  0
 27 28  2  0
 28 29  1  0
 28 30  1  0
 30 31  2  0
  3  4  2  0
  4  5  1  0
  5  6  2  0
  6  7  1  0
 13 15  1  0
 15 16  1  0
 16 17  2  0
 16 18  2  0
 16  9  1  0
  6  1  1  0
 31 25  1  0
 11 19  1  0
 11 20  1  0
 21 24  1  0
M  END
> <meeko>
{"is_sidechain": false}

> <source_group>
BACE1 canonical

> <source_system>
BACE1_verubecestat

> <source_run>
canonical_obabel_seed1103_ex32

> <source_seed>
1103

> <vina_pose_rank>
12

> <vina_affinity_kcal_mol>
-7.4390000000000001

> <vina_rmsd_to_crystal_angstrom>
7.8986000000000001

> <minimizedAffinity>
-7.38235

> <CNNscore>
0.0249370057

> <CNNaffinity>
4.2611079216

> <CNN_VS>
0.1062592715

> <CNNaffinity_variance>
0.7983687520

$$$$
BACE1_verubecestat__canonical_obabel_seed1103_ex32__pose13


 31 33  0  0  0  0  0  0  0  0999 V2000
   29.0470   12.8680   20.9370 C   0  0  0  0  0  0  0  0  0  0  0  0
   27.6820   12.6110   21.0570 C   0  0  0  0  0  0  0  0  0  0  0  0
   27.1750   11.3320   21.1090 C   0  0  0  0  0  0  0  0  0  0  0  0
   28.0230   10.2350   21.0200 C   0  0  0  0  0  0  0  0  0  0  0  0
   29.3820   10.4710   20.9050 C   0  0  0  0  0  0  0  0  0  0  0  0
   29.8790   11.7600   20.8860 C   0  0  0  0  0  0  0  0  0  0  0  0
   31.2180   11.9640   20.8010 F   0  0  0  0  0  0  0  0  0  0  0  0
   27.1860   15.7060   24.1970 C   0  0  0  0  0  0  0  0  0  0  0  0
   28.0680   15.3300   23.0740 N   0  0  0  0  0  0  0  0  0  0  0  0
   27.7990   15.6830   21.7330 C   0  0  0  0  0  0  0  0  0  0  0  0
   26.7350   16.5320   21.5840 N   0  0  0  0  0  0  0  0  0  0  0  0
   28.5030   15.2710   20.7240 N   0  0  0  0  0  0  0  0  0  0  0  0
   29.5760   14.2920   20.8850 C   0  0  0  0  0  0  0  0  0  0  0  0
   30.3960   14.4680   19.6030 C   0  0  0  0  0  0  0  0  0  0  0  0
   30.4700   14.6870   22.0400 C   0  0  0  0  0  0  0  0  0  0  0  0
   29.5700   14.6510   23.5690 S   0  0  0  0  0  0  0  0  0  0  0  0
   30.2080   15.6130   24.4480 O   0  0  0  0  0  0  0  0  0  0  0  0
   29.2310   13.3150   23.9510 O   0  0  0  0  0  0  0  0  0  0  0  0
   26.4690   16.8350   20.6860 H   0  0  0  0  0  0  0  0  0  0  0  0
   26.2350   16.8380   22.3750 H   0  0  0  0  0  0  0  0  0  0  0  0
   25.7840   11.2130   21.2270 N   0  0  0  0  0  0  0  0  0  0  0  0
   24.8810   10.7510   20.2870 C   0  0  0  0  0  0  0  0  0  0  0  0
   25.1500   10.4860   19.1230 O   0  0  0  0  0  0  0  0  0  0  0  0
   25.4010   11.4930   22.0900 H   0  0  0  0  0  0  0  0  0  0  0  0
   23.4990   10.5450   20.7840 C   0  0  0  0  0  0  0  0  0  0  0  0
   22.4280   10.6570   19.9150 C   0  0  0  0  0  0  0  0  0  0  0  0
   21.1600   10.4570   20.4330 C   0  0  0  0  0  0  0  0  0  0  0  0
   21.0040   10.1530   21.7720 C   0  0  0  0  0  0  0  0  0  0  0  0
   19.7930    9.9590   22.3210 F   0  0  0  0  0  0  0  0  0  0  0  0
   22.1310   10.0690   22.5580 C   0  0  0  0  0  0  0  0  0  0  0  0
   23.3730   10.2640   22.0850 N   0  0  0  0  0  0  0  0  0  0  0  0
  8  9  1  0
  9 10  1  0
 10 11  1  0
 10 12  2  0
 12 13  1  0
 13 14  1  0
 13  1  1  0
  1  2  2  0
  2  3  1  0
  3 21  1  0
 21 22  1  0
 22 23  2  0
 22 25  1  0
 25 26  2  0
 26 27  1  0
 27 28  2  0
 28 29  1  0
 28 30  1  0
 30 31  2  0
  3  4  2  0
  4  5  1  0
  5  6  2  0
  6  7  1  0
 13 15  1  0
 15 16  1  0
 16 17  2  0
 16 18  2  0
 16  9  1  0
  6  1  1  0
 31 25  1  0
 11 19  1  0
 11 20  1  0
 21 24  1  0
M  END
> <meeko>
{"is_sidechain": false}

> <source_group>
BACE1 canonical

> <source_system>
BACE1_verubecestat

> <source_run>
canonical_obabel_seed1103_ex32

> <source_seed>
1103

> <vina_pose_rank>
13

> <vina_affinity_kcal_mol>
-7.4390000000000001

> <vina_rmsd_to_crystal_angstrom>
7.7253999999999996

> <minimizedAffinity>
-7.51079

> <CNNscore>
0.0582695641

> <CNNaffinity>
4.8754296303

> <CNN_VS>
0.2840891480

> <CNNaffinity_variance>
0.8656910062

$$$$
BACE1_verubecestat__canonical_obabel_seed1103_ex32__pose14


 31 33  0  0  0  0  0  0  0  0999 V2000
   28.2470   13.2280   22.6020 C   0  0  0  0  0  0  0  0  0  0  0  0
   27.0130   12.8960   23.1590 C   0  0  0  0  0  0  0  0  0  0  0  0
   26.5940   13.3960   24.3710 C   0  0  0  0  0  0  0  0  0  0  0  0
   27.4130   14.2470   25.1020 C   0  0  0  0  0  0  0  0  0  0  0  0
   28.6400   14.5910   24.5620 C   0  0  0  0  0  0  0  0  0  0  0  0
   29.0340   14.1060   23.3300 C   0  0  0  0  0  0  0  0  0  0  0  0
   30.2310   14.4820   22.8100 F   0  0  0  0  0  0  0  0  0  0  0  0
   25.0850   13.8430   19.1700 C   0  0  0  0  0  0  0  0  0  0  0  0
   26.3640   13.4150   19.7710 N   0  0  0  0  0  0  0  0  0  0  0  0
   26.6450   12.0720   20.1080 C   0  0  0  0  0  0  0  0  0  0  0  0
   25.6910   11.1840   19.6900 N   0  0  0  0  0  0  0  0  0  0  0  0
   27.7170   11.6950   20.7340 N   0  0  0  0  0  0  0  0  0  0  0  0
   28.6800   12.6610   21.2590 C   0  0  0  0  0  0  0  0  0  0  0  0
   29.9390   11.8130   21.4630 C   0  0  0  0  0  0  0  0  0  0  0  0
   29.0080   13.6930   20.2030 C   0  0  0  0  0  0  0  0  0  0  0  0
   27.5690   14.6450   19.7890 S   0  0  0  0  0  0  0  0  0  0  0  0
   27.7480   15.0910   18.4190 O   0  0  0  0  0  0  0  0  0  0  0  0
   27.1720   15.4970   20.8660 O   0  0  0  0  0  0  0  0  0  0  0  0
   25.7980   10.2230   19.8780 H   0  0  0  0  0  0  0  0  0  0  0  0
   24.8990   11.5050   19.2010 H   0  0  0  0  0  0  0  0  0  0  0  0
   25.3330   12.9810   24.8190 N   0  0  0  0  0  0  0  0  0  0  0  0
   24.1990   12.7230   24.0690 C   0  0  0  0  0  0  0  0  0  0  0  0
   24.0810   12.9460   22.8720 O   0  0  0  0  0  0  0  0  0  0  0  0
   25.2430   12.8570   25.7920 H   0  0  0  0  0  0  0  0  0  0  0  0
   23.0790   12.0950   24.8110 C   0  0  0  0  0  0  0  0  0  0  0  0
   22.5280   10.9090   24.3580 C   0  0  0  0  0  0  0  0  0  0  0  0
   21.4840   10.3690   25.0870 C   0  0  0  0  0  0  0  0  0  0  0  0
   21.0340   11.0120   26.2240 C   0  0  0  0  0  0  0  0  0  0  0  0
   20.0170   10.5300   26.9590 F   0  0  0  0  0  0  0  0  0  0  0  0
   21.6420   12.1900   26.5920 C   0  0  0  0  0  0  0  0  0  0  0  0
   22.6530   12.7420   25.9010 N   0  0  0  0  0  0  0  0  0  0  0  0
  8  9  1  0
  9 10  1  0
 10 11  1  0
 10 12  2  0
 12 13  1  0
 13 14  1  0
 13  1  1  0
  1  2  2  0
  2  3  1  0
  3 21  1  0
 21 22  1  0
 22 23  2  0
 22 25  1  0
 25 26  2  0
 26 27  1  0
 27 28  2  0
 28 29  1  0
 28 30  1  0
 30 31  2  0
  3  4  2  0
  4  5  1  0
  5  6  2  0
  6  7  1  0
 13 15  1  0
 15 16  1  0
 16 17  2  0
 16 18  2  0
 16  9  1  0
  6  1  1  0
 31 25  1  0
 11 19  1  0
 11 20  1  0
 21 24  1  0
M  END
> <meeko>
{"is_sidechain": false}

> <source_group>
BACE1 canonical

> <source_system>
BACE1_verubecestat

> <source_run>
canonical_obabel_seed1103_ex32

> <source_seed>
1103

> <vina_pose_rank>
14

> <vina_affinity_kcal_mol>
-7.3540000000000001

> <vina_rmsd_to_crystal_angstrom>
7.7680999999999996

> <minimizedAffinity>
-7.57321

> <CNNscore>
0.0204605944

> <CNNaffinity>
3.7471210957

> <CNN_VS>
0.0766683221

> <CNNaffinity_variance>
1.7301692963

$$$$
BACE1_verubecestat__canonical_obabel_seed1103_ex32__pose15


 31 33  0  0  0  0  0  0  0  0999 V2000
   17.5480   13.5570   26.2360 C   0  0  0  0  0  0  0  0  0  0  0  0
   18.3900   13.2320   25.1730 C   0  0  0  0  0  0  0  0  0  0  0  0
   19.6610   12.7390   25.3650 C   0  0  0  0  0  0  0  0  0  0  0  0
   20.1620   12.5670   26.6490 C   0  0  0  0  0  0  0  0  0  0  0  0
   19.3390   12.8810   27.7160 C   0  0  0  0  0  0  0  0  0  0  0  0
   18.0550   13.3450   27.5090 C   0  0  0  0  0  0  0  0  0  0  0  0
   17.2570   13.6180   28.5730 F   0  0  0  0  0  0  0  0  0  0  0  0
   17.0890   18.1440   27.1840 C   0  0  0  0  0  0  0  0  0  0  0  0
   16.6590   16.8060   26.7310 N   0  0  0  0  0  0  0  0  0  0  0  0
   15.8780   15.9380   27.5250 C   0  0  0  0  0  0  0  0  0  0  0  0
   15.4280   16.5030   28.6880 N   0  0  0  0  0  0  0  0  0  0  0  0
   15.5840   14.7200   27.1880 N   0  0  0  0  0  0  0  0  0  0  0  0
   16.1480   14.0970   25.9910 C   0  0  0  0  0  0  0  0  0  0  0  0
   15.2010   12.9200   25.7390 C   0  0  0  0  0  0  0  0  0  0  0  0
   16.0180   15.0310   24.8090 C   0  0  0  0  0  0  0  0  0  0  0  0
   16.9750   16.5040   25.0650 S   0  0  0  0  0  0  0  0  0  0  0  0
   16.3260   17.5570   24.3060 O   0  0  0  0  0  0  0  0  0  0  0  0
   18.3790   16.2340   25.0270 O   0  0  0  0  0  0  0  0  0  0  0  0
   14.8740   15.9770   29.3090 H   0  0  0  0  0  0  0  0  0  0  0  0
   15.6560   17.4370   28.9030 H   0  0  0  0  0  0  0  0  0  0  0  0
   20.4040   12.4550   24.2120 N   0  0  0  0  0  0  0  0  0  0  0  0
   20.3850   11.3070   23.4400 C   0  0  0  0  0  0  0  0  0  0  0  0
   19.7890   10.2770   23.7260 O   0  0  0  0  0  0  0  0  0  0  0  0
   21.0190   13.1640   23.9120 H   0  0  0  0  0  0  0  0  0  0  0  0
   21.1300   11.3910   22.1600 C   0  0  0  0  0  0  0  0  0  0  0  0
   21.6410   12.6060   21.7370 C   0  0  0  0  0  0  0  0  0  0  0  0
   22.3260   12.6270   20.5350 C   0  0  0  0  0  0  0  0  0  0  0  0
   22.4790   11.4610   19.8100 C   0  0  0  0  0  0  0  0  0  0  0  0
   23.1280   11.4350   18.6330 F   0  0  0  0  0  0  0  0  0  0  0  0
   21.9290   10.3030   20.3110 C   0  0  0  0  0  0  0  0  0  0  0  0
   21.2550   10.2520   21.4710 N   0  0  0  0  0  0  0  0  0  0  0  0
  8  9  1  0
  9 10  1  0
 10 11  1  0
 10 12  2  0
 12 13  1  0
 13 14  1  0
 13  1  1  0
  1  2  2  0
  2  3  1  0
  3 21  1  0
 21 22  1  0
 22 23  2  0
 22 25  1  0
 25 26  2  0
 26 27  1  0
 27 28  2  0
 28 29  1  0
 28 30  1  0
 30 31  2  0
  3  4  2  0
  4  5  1  0
  5  6  2  0
  6  7  1  0
 13 15  1  0
 15 16  1  0
 16 17  2  0
 16 18  2  0
 16  9  1  0
  6  1  1  0
 31 25  1  0
 11 19  1  0
 11 20  1  0
 21 24  1  0
M  END
> <meeko>
{"is_sidechain": false}

> <source_group>
BACE1 canonical

> <source_system>
BACE1_verubecestat

> <source_run>
canonical_obabel_seed1103_ex32

> <source_seed>
1103

> <vina_pose_rank>
15

> <vina_affinity_kcal_mol>
-7.3540000000000001

> <vina_rmsd_to_crystal_angstrom>
8.5770999999999997

> <minimizedAffinity>
-7.88443

> <CNNscore>
0.3346570730

> <CNNaffinity>
5.3111705780

> <CNN_VS>
1.7774207592

> <CNNaffinity_variance>
0.1965705156

$$$$
BACE1_verubecestat__canonical_obabel_seed1103_ex32__pose16


 31 33  0  0  0  0  0  0  0  0999 V2000
   24.5250   12.3550   19.9640 C   0  0  0  0  0  0  0  0  0  0  0  0
   23.6910   12.2180   21.0720 C   0  0  0  0  0  0  0  0  0  0  0  0
   22.4030   12.7030   21.0880 C   0  0  0  0  0  0  0  0  0  0  0  0
   21.8910   13.3750   19.9850 C   0  0  0  0  0  0  0  0  0  0  0  0
   22.7040   13.5170   18.8750 C   0  0  0  0  0  0  0  0  0  0  0  0
   23.9830   12.9980   18.8620 C   0  0  0  0  0  0  0  0  0  0  0  0
   24.7510   13.1240   17.7490 F   0  0  0  0  0  0  0  0  0  0  0  0
   27.7420   15.4360   21.4840 C   0  0  0  0  0  0  0  0  0  0  0  0
   27.2370   14.1390   20.9930 N   0  0  0  0  0  0  0  0  0  0  0  0
   27.3870   13.7100   19.6550 C   0  0  0  0  0  0  0  0  0  0  0  0
   28.1720   14.5330   18.8930 N   0  0  0  0  0  0  0  0  0  0  0  0
   26.8560   12.6250   19.1810 N   0  0  0  0  0  0  0  0  0  0  0  0
   25.9440   11.8060   19.9760 C   0  0  0  0  0  0  0  0  0  0  0  0
   25.9600   10.4620   19.2410 C   0  0  0  0  0  0  0  0  0  0  0  0
   26.5260   11.5650   21.3520 C   0  0  0  0  0  0  0  0  0  0  0  0
   26.6810   13.0930   22.2420 S   0  0  0  0  0  0  0  0  0  0  0  0
   27.7780   12.9180   23.1770 O   0  0  0  0  0  0  0  0  0  0  0  0
   25.4030   13.6300   22.5950 O   0  0  0  0  0  0  0  0  0  0  0  0
   28.3360   14.3180   17.9460 H   0  0  0  0  0  0  0  0  0  0  0  0
   28.5730   15.3390   19.2920 H   0  0  0  0  0  0  0  0  0  0  0  0
   21.6710   12.5020   22.2650 N   0  0  0  0  0  0  0  0  0  0  0  0
   20.9130   11.4020   22.6270 C   0  0  0  0  0  0  0  0  0  0  0  0
   20.6520   10.4560   21.8950 O   0  0  0  0  0  0  0  0  0  0  0  0
   21.7000   13.2370   22.9200 H   0  0  0  0  0  0  0  0  0  0  0  0
   20.4300   11.3990   24.0290 C   0  0  0  0  0  0  0  0  0  0  0  0
   19.2420   10.7650   24.3490 C   0  0  0  0  0  0  0  0  0  0  0  0
   18.8380   10.7950   25.6720 C   0  0  0  0  0  0  0  0  0  0  0  0
   19.6160   11.4390   26.6150 C   0  0  0  0  0  0  0  0  0  0  0  0
   19.2590   11.5010   27.9090 F   0  0  0  0  0  0  0  0  0  0  0  0
   20.7790   12.0450   26.1980 C   0  0  0  0  0  0  0  0  0  0  0  0
   21.1940   12.0380   24.9210 N   0  0  0  0  0  0  0  0  0  0  0  0
  8  9  1  0
  9 10  1  0
 10 11  1  0
 10 12  2  0
 12 13  1  0
 13 14  1  0
 13  1  1  0
  1  2  2  0
  2  3  1  0
  3 21  1  0
 21 22  1  0
 22 23  2  0
 22 25  1  0
 25 26  2  0
 26 27  1  0
 27 28  2  0
 28 29  1  0
 28 30  1  0
 30 31  2  0
  3  4  2  0
  4  5  1  0
  5  6  2  0
  6  7  1  0
 13 15  1  0
 15 16  1  0
 16 17  2  0
 16 18  2  0
 16  9  1  0
  6  1  1  0
 31 25  1  0
 11 19  1  0
 11 20  1  0
 21 24  1  0
M  END
> <meeko>
{"is_sidechain": false}

> <source_group>
BACE1 canonical

> <source_system>
BACE1_verubecestat

> <source_run>
canonical_obabel_seed1103_ex32

> <source_seed>
1103

> <vina_pose_rank>
16

> <vina_affinity_kcal_mol>
-7.2809999999999997

> <vina_rmsd_to_crystal_angstrom>
7.4234

> <minimizedAffinity>
-7.91149

> <CNNscore>
0.1516750008

> <CNNaffinity>
5.9449000359

> <CNN_VS>
0.9016926885

> <CNNaffinity_variance>
0.0471440107

$$$$
BACE1_verubecestat__canonical_obabel_seed1103_ex32__pose17


 31 33  0  0  0  0  0  0  0  0999 V2000
   27.2630   11.6340   20.1890 C   0  0  0  0  0  0  0  0  0  0  0  0
   27.3270   12.7230   19.3210 C   0  0  0  0  0  0  0  0  0  0  0  0
   26.2720   13.0820   18.5130 C   0  0  0  0  0  0  0  0  0  0  0  0
   25.0950   12.3440   18.5220 C   0  0  0  0  0  0  0  0  0  0  0  0
   25.0130   11.2620   19.3800 C   0  0  0  0  0  0  0  0  0  0  0  0
   26.0680   10.9320   20.2080 C   0  0  0  0  0  0  0  0  0  0  0  0
   25.9520    9.8830   21.0630 F   0  0  0  0  0  0  0  0  0  0  0  0
   29.2560   15.3160   22.3400 C   0  0  0  0  0  0  0  0  0  0  0  0
   29.0570   13.8930   21.9970 N   0  0  0  0  0  0  0  0  0  0  0  0
   29.8840   13.1980   21.0870 C   0  0  0  0  0  0  0  0  0  0  0  0
   30.9730   13.9140   20.6670 N   0  0  0  0  0  0  0  0  0  0  0  0
   29.6600   11.9830   20.6920 N   0  0  0  0  0  0  0  0  0  0  0  0
   28.4450   11.2630   21.0710 C   0  0  0  0  0  0  0  0  0  0  0  0
   28.8170    9.8010   20.8110 C   0  0  0  0  0  0  0  0  0  0  0  0
   28.2030   11.4010   22.5580 C   0  0  0  0  0  0  0  0  0  0  0  0
   27.8980   13.0960   22.9890 S   0  0  0  0  0  0  0  0  0  0  0  0
   28.3280   13.2560   24.3670 O   0  0  0  0  0  0  0  0  0  0  0  0
   26.6420   13.5510   22.4820 O   0  0  0  0  0  0  0  0  0  0  0  0
   31.6090   13.5140   20.0310 H   0  0  0  0  0  0  0  0  0  0  0  0
   31.1210   14.8280   21.0020 H   0  0  0  0  0  0  0  0  0  0  0  0
   26.4660   14.1960   17.6850 N   0  0  0  0  0  0  0  0  0  0  0  0
   26.9150   15.4570   18.0350 C   0  0  0  0  0  0  0  0  0  0  0  0
   27.0960   15.8460   19.1820 O   0  0  0  0  0  0  0  0  0  0  0  0
   26.2580   14.0630   16.7320 H   0  0  0  0  0  0  0  0  0  0  0  0
   27.2180   16.3590   16.8990 C   0  0  0  0  0  0  0  0  0  0  0  0
   27.1460   17.7310   17.0670 C   0  0  0  0  0  0  0  0  0  0  0  0
   27.4370   18.5260   15.9730 C   0  0  0  0  0  0  0  0  0  0  0  0
   27.7880   17.9410   14.7710 C   0  0  0  0  0  0  0  0  0  0  0  0
   28.0700   18.6720   13.6790 F   0  0  0  0  0  0  0  0  0  0  0  0
   27.8260   16.5670   14.7000 C   0  0  0  0  0  0  0  0  0  0  0  0
   27.5430   15.7700   15.7430 N   0  0  0  0  0  0  0  0  0  0  0  0
  8  9  1  0
  9 10  1  0
 10 11  1  0
 10 12  2  0
 12 13  1  0
 13 14  1  0
 13  1  1  0
  1  2  2  0
  2  3  1  0
  3 21  1  0
 21 22  1  0
 22 23  2  0
 22 25  1  0
 25 26  2  0
 26 27  1  0
 27 28  2  0
 28 29  1  0
 28 30  1  0
 30 31  2  0
  3  4  2  0
  4  5  1  0
  5  6  2  0
  6  7  1  0
 13 15  1  0
 15 16  1  0
 16 17  2  0
 16 18  2  0
 16  9  1  0
  6  1  1  0
 31 25  1  0
 11 19  1  0
 11 20  1  0
 21 24  1  0
M  END
> <meeko>
{"is_sidechain": false}

> <source_group>
BACE1 canonical

> <source_system>
BACE1_verubecestat

> <source_run>
canonical_obabel_seed1103_ex32

> <source_seed>
1103

> <vina_pose_rank>
17

> <vina_affinity_kcal_mol>
-7.2190000000000003

> <vina_rmsd_to_crystal_angstrom>
7.8209

> <minimizedAffinity>
-7.39628

> <CNNscore>
0.5422208309

> <CNNaffinity>
6.2256603241

> <CNN_VS>
3.3756828308

> <CNNaffinity_variance>
0.1395320892

$$$$
BACE1_verubecestat__canonical_obabel_seed1103_ex32__pose18


 31 33  0  0  0  0  0  0  0  0999 V2000
   21.2850   11.6540   25.7820 C   0  0  0  0  0  0  0  0  0  0  0  0
   22.5550   12.2030   25.9560 C   0  0  0  0  0  0  0  0  0  0  0  0
   23.4350   12.3680   24.9110 C   0  0  0  0  0  0  0  0  0  0  0  0
   23.0880   11.9650   23.6280 C   0  0  0  0  0  0  0  0  0  0  0  0
   21.8300   11.4220   23.4360 C   0  0  0  0  0  0  0  0  0  0  0  0
   20.9450   11.2920   24.4880 C   0  0  0  0  0  0  0  0  0  0  0  0
   19.7050   10.7830   24.2670 F   0  0  0  0  0  0  0  0  0  0  0  0
   19.8270   15.7260   27.6370 C   0  0  0  0  0  0  0  0  0  0  0  0
   19.9030   14.2600   27.4830 N   0  0  0  0  0  0  0  0  0  0  0  0
   20.6570   13.4330   28.3440 C   0  0  0  0  0  0  0  0  0  0  0  0
   21.1870   14.0900   29.4220 N   0  0  0  0  0  0  0  0  0  0  0  0
   20.8230   12.1590   28.1590 N   0  0  0  0  0  0  0  0  0  0  0  0
   20.3330   11.4880   26.9560 C   0  0  0  0  0  0  0  0  0  0  0  0
   20.3130   10.0140   27.3710 C   0  0  0  0  0  0  0  0  0  0  0  0
   18.9010   11.8910   26.6830 C   0  0  0  0  0  0  0  0  0  0  0  0
   18.7960   13.6260   26.3260 S   0  0  0  0  0  0  0  0  0  0  0  0
   17.4660   14.0510   26.7260 O   0  0  0  0  0  0  0  0  0  0  0  0
   19.3960   13.9440   25.0680 O   0  0  0  0  0  0  0  0  0  0  0  0
   21.7300   13.5980   30.0800 H   0  0  0  0  0  0  0  0  0  0  0  0
   21.0260   15.0540   29.5390 H   0  0  0  0  0  0  0  0  0  0  0  0
   24.6810   12.9280   25.2230 N   0  0  0  0  0  0  0  0  0  0  0  0
   25.6330   13.4370   24.3570 C   0  0  0  0  0  0  0  0  0  0  0  0
   25.5880   13.3580   23.1360 O   0  0  0  0  0  0  0  0  0  0  0  0
   24.9070   12.9660   26.1800 H   0  0  0  0  0  0  0  0  0  0  0  0
   26.7580   14.1540   25.0030 C   0  0  0  0  0  0  0  0  0  0  0  0
   26.5020   15.1270   25.9540 C   0  0  0  0  0  0  0  0  0  0  0  0
   27.5890   15.7660   26.5240 C   0  0  0  0  0  0  0  0  0  0  0  0
   28.8700   15.4210   26.1380 C   0  0  0  0  0  0  0  0  0  0  0  0
   29.9560   16.0200   26.6560 F   0  0  0  0  0  0  0  0  0  0  0  0
   29.0230   14.4450   25.1800 C   0  0  0  0  0  0  0  0  0  0  0  0
   27.9870   13.8110   24.6050 N   0  0  0  0  0  0  0  0  0  0  0  0
  8  9  1  0
  9 10  1  0
 10 11  1  0
 10 12  2  0
 12 13  1  0
 13 14  1  0
 13  1  1  0
  1  2  2  0
  2  3  1  0
  3 21  1  0
 21 22  1  0
 22 23  2  0
 22 25  1  0
 25 26  2  0
 26 27  1  0
 27 28  2  0
 28 29  1  0
 28 30  1  0
 30 31  2  0
  3  4  2  0
  4  5  1  0
  5  6  2  0
  6  7  1  0
 13 15  1  0
 15 16  1  0
 16 17  2  0
 16 18  2  0
 16  9  1  0
  6  1  1  0
 31 25  1  0
 11 19  1  0
 11 20  1  0
 21 24  1  0
M  END
> <meeko>
{"is_sidechain": false}

> <source_group>
BACE1 canonical

> <source_system>
BACE1_verubecestat

> <source_run>
canonical_obabel_seed1103_ex32

> <source_seed>
1103

> <vina_pose_rank>
18

> <vina_affinity_kcal_mol>
-7.2000000000000002

> <vina_rmsd_to_crystal_angstrom>
5.8497000000000003

> <minimizedAffinity>
-7.59884

> <CNNscore>
0.0289507005

> <CNNaffinity>
4.0123643875

> <CNN_VS>
0.1161607578

> <CNNaffinity_variance>
1.1377421618

$$$$
BACE1_verubecestat__canonical_obabel_seed1103_ex32__pose19


 31 33  0  0  0  0  0  0  0  0999 V2000
   27.4070   15.5090   19.7970 C   0  0  0  0  0  0  0  0  0  0  0  0
   26.3120   14.7730   20.2480 C   0  0  0  0  0  0  0  0  0  0  0  0
   25.5890   13.9460   19.4200 C   0  0  0  0  0  0  0  0  0  0  0  0
   25.9200   13.8320   18.0750 C   0  0  0  0  0  0  0  0  0  0  0  0
   27.0060   14.5520   17.6100 C   0  0  0  0  0  0  0  0  0  0  0  0
   27.7420   15.3540   18.4600 C   0  0  0  0  0  0  0  0  0  0  0  0
   28.8220   16.0270   17.9850 F   0  0  0  0  0  0  0  0  0  0  0  0
   28.6590   13.4250   23.8270 C   0  0  0  0  0  0  0  0  0  0  0  0
   28.5830   14.5140   22.8330 N   0  0  0  0  0  0  0  0  0  0  0  0
   27.7070   15.6150   22.9620 C   0  0  0  0  0  0  0  0  0  0  0  0
   27.0460   15.6610   24.1590 N   0  0  0  0  0  0  0  0  0  0  0  0
   27.5500   16.5220   22.0480 N   0  0  0  0  0  0  0  0  0  0  0  0
   28.1880   16.4120   20.7380 C   0  0  0  0  0  0  0  0  0  0  0  0
   28.1310   17.8470   20.2070 C   0  0  0  0  0  0  0  0  0  0  0  0
   29.6500   16.0580   20.9000 C   0  0  0  0  0  0  0  0  0  0  0  0
   29.8280   14.4560   21.6440 S   0  0  0  0  0  0  0  0  0  0  0  0
   31.0970   14.4660   22.3500 O   0  0  0  0  0  0  0  0  0  0  0  0
   29.4080   13.4140   20.7600 O   0  0  0  0  0  0  0  0  0  0  0  0
   26.4120   16.3910   24.3440 H   0  0  0  0  0  0  0  0  0  0  0  0
   27.2040   14.9640   24.8370 H   0  0  0  0  0  0  0  0  0  0  0  0
   24.5100   13.2650   19.9990 N   0  0  0  0  0  0  0  0  0  0  0  0
   23.2410   13.0720   19.4820 C   0  0  0  0  0  0  0  0  0  0  0  0
   22.8110   13.5910   18.4600 O   0  0  0  0  0  0  0  0  0  0  0  0
   24.6760   12.8740   20.8870 H   0  0  0  0  0  0  0  0  0  0  0  0
   22.3850   12.1270   20.2400 C   0  0  0  0  0  0  0  0  0  0  0  0
   21.9060   12.4800   21.4890 C   0  0  0  0  0  0  0  0  0  0  0  0
   21.1130   11.5600   22.1530 C   0  0  0  0  0  0  0  0  0  0  0  0
   20.8280   10.3450   21.5620 C   0  0  0  0  0  0  0  0  0  0  0  0
   20.0710    9.4170   22.1720 F   0  0  0  0  0  0  0  0  0  0  0  0
   21.3560   10.0830   20.3180 C   0  0  0  0  0  0  0  0  0  0  0  0
   22.1330   10.9530   19.6520 N   0  0  0  0  0  0  0  0  0  0  0  0
  8  9  1  0
  9 10  1  0
 10 11  1  0
 10 12  2  0
 12 13  1  0
 13 14  1  0
 13  1  1  0
  1  2  2  0
  2  3  1  0
  3 21  1  0
 21 22  1  0
 22 23  2  0
 22 25  1  0
 25 26  2  0
 26 27  1  0
 27 28  2  0
 28 29  1  0
 28 30  1  0
 30 31  2  0
  3  4  2  0
  4  5  1  0
  5  6  2  0
  6  7  1  0
 13 15  1  0
 15 16  1  0
 16 17  2  0
 16 18  2  0
 16  9  1  0
  6  1  1  0
 31 25  1  0
 11 19  1  0
 11 20  1  0
 21 24  1  0
M  END
> <meeko>
{"is_sidechain": false}

> <source_group>
BACE1 canonical

> <source_system>
BACE1_verubecestat

> <source_run>
canonical_obabel_seed1103_ex32

> <source_seed>
1103

> <vina_pose_rank>
19

> <vina_affinity_kcal_mol>
-7.194

> <vina_rmsd_to_crystal_angstrom>
7.9672999999999998

> <minimizedAffinity>
-7.38977

> <CNNscore>
0.0654192120

> <CNNaffinity>
4.7251777649

> <CNN_VS>
0.3091174066

> <CNNaffinity_variance>
0.5587621331

$$$$
BACE1_verubecestat__canonical_obabel_seed1103_ex32__pose20


 31 33  0  0  0  0  0  0  0  0999 V2000
   27.9350   13.2840   20.7340 C   0  0  0  0  0  0  0  0  0  0  0  0
   26.6580   12.8370   21.0700 C   0  0  0  0  0  0  0  0  0  0  0  0
   25.5380   13.2050   20.3600 C   0  0  0  0  0  0  0  0  0  0  0  0
   25.6440   14.0700   19.2770 C   0  0  0  0  0  0  0  0  0  0  0  0
   26.9040   14.5210   18.9270 C   0  0  0  0  0  0  0  0  0  0  0  0
   28.0230   14.1180   19.6290 C   0  0  0  0  0  0  0  0  0  0  0  0
   29.2510   14.5520   19.2470 F   0  0  0  0  0  0  0  0  0  0  0  0
   29.2990   16.4440   23.9440 C   0  0  0  0  0  0  0  0  0  0  0  0
   29.3320   15.1680   23.2020 N   0  0  0  0  0  0  0  0  0  0  0  0
   30.2660   14.8980   22.1770 C   0  0  0  0  0  0  0  0  0  0  0  0
   31.2300   15.8590   22.0370 N   0  0  0  0  0  0  0  0  0  0  0  0
   30.2410   13.8290   21.4420 N   0  0  0  0  0  0  0  0  0  0  0  0
   29.1530   12.8570   21.5360 C   0  0  0  0  0  0  0  0  0  0  0  0
   29.7550   11.6050   20.8920 C   0  0  0  0  0  0  0  0  0  0  0  0
   28.8810   12.5210   22.9860 C   0  0  0  0  0  0  0  0  0  0  0  0
   28.3070   13.9530   23.8630 S   0  0  0  0  0  0  0  0  0  0  0  0
   28.6950   13.7720   25.2510 O   0  0  0  0  0  0  0  0  0  0  0  0
   26.9980   14.3420   23.4390 O   0  0  0  0  0  0  0  0  0  0  0  0
   31.9270   15.7600   21.3480 H   0  0  0  0  0  0  0  0  0  0  0  0
   31.2280   16.6490   22.6250 H   0  0  0  0  0  0  0  0  0  0  0  0
   24.3140   12.6870   20.8040 N   0  0  0  0  0  0  0  0  0  0  0  0
   23.4360   11.8610   20.1250 C   0  0  0  0  0  0  0  0  0  0  0  0
   23.5340   11.5460   18.9470 O   0  0  0  0  0  0  0  0  0  0  0  0
   24.0450   12.9440   21.7160 H   0  0  0  0  0  0  0  0  0  0  0  0
   22.3260   11.3110   20.9410 C   0  0  0  0  0  0  0  0  0  0  0  0
   21.8160   12.0440   21.9980 C   0  0  0  0  0  0  0  0  0  0  0  0
   20.7820   11.4820   22.7260 C   0  0  0  0  0  0  0  0  0  0  0  0
   20.2970   10.2350   22.3820 C   0  0  0  0  0  0  0  0  0  0  0  0
   19.3010    9.6460   23.0650 F   0  0  0  0  0  0  0  0  0  0  0  0
   20.8730    9.5810   21.3170 C   0  0  0  0  0  0  0  0  0  0  0  0
   21.8820   10.0980   20.5960 N   0  0  0  0  0  0  0  0  0  0  0  0
  8  9  1  0
  9 10  1  0
 10 11  1  0
 10 12  2  0
 12 13  1  0
 13 14  1  0
 13  1  1  0
  1  2  2  0
  2  3  1  0
  3 21  1  0
 21 22  1  0
 22 23  2  0
 22 25  1  0
 25 26  2  0
 26 27  1  0
 27 28  2  0
 28 29  1  0
 28 30  1  0
 30 31  2  0
  3  4  2  0
  4  5  1  0
  5  6  2  0
  6  7  1  0
 13 15  1  0
 15 16  1  0
 16 17  2  0
 16 18  2  0
 16  9  1  0
  6  1  1  0
 31 25  1  0
 11 19  1  0
 11 20  1  0
 21 24  1  0
M  END
> <meeko>
{"is_sidechain": false}

> <source_group>
BACE1 canonical

> <source_system>
BACE1_verubecestat

> <source_run>
canonical_obabel_seed1103_ex32

> <source_seed>
1103

> <vina_pose_rank>
20

> <vina_affinity_kcal_mol>
-7.1760000000000002

> <vina_rmsd_to_crystal_angstrom>
7.7187000000000001

> <minimizedAffinity>
-7.81759

> <CNNscore>
0.0839682594

> <CNNaffinity>
5.4868049622

> <CNN_VS>
0.4607174695

> <CNNaffinity_variance>
0.1087467447

$$$$
