
     RDKit          3D

 22 22  0  0  0  0  0  0  0  0999 V2000
    1.0163    1.4459    0.9528 N   0  0  0  0  0  0  0  0  0  0  0  0
    1.4007    0.0061    0.9149 C   0  0  1  0  0  0  0  0  0  0  0  0
    0.7607   -0.7670   -0.2528 C   0  0  0  0  0  0  0  0  0  0  0  0
   -0.6928   -0.6078   -0.3060 N   0  0  0  0  0  0  0  0  0  0  0  0
   -1.4223   -1.4542    0.5078 N   0  0  0  0  0  0  0  0  0  0  0  0
   -2.7002   -1.2528    0.5885 C   0  0  0  0  0  0  0  0  0  0  0  0
   -3.6479   -2.2730    1.5740 Cl  0  0  0  0  0  0  0  0  0  0  0  0
   -3.4031   -0.1455   -0.1600 C   0  0  0  0  0  0  0  0  0  0  0  0
   -4.5946    0.0835   -0.0193 O   0  0  0  0  0  0  0  0  0  0  0  0
   -2.5929    0.5743   -0.9900 N   0  0  0  0  0  0  0  0  0  0  0  0
   -1.2360    0.4393   -1.0477 C   0  0  0  0  0  0  0  0  0  0  0  0
   -0.5728    1.2195   -1.7297 O   0  0  0  0  0  0  0  0  0  0  0  0
    2.9204   -0.1491    0.8177 C   0  0  0  0  0  0  0  0  0  0  0  0
    3.5298   -1.1180    0.3949 O   0  0  0  0  0  0  0  0  0  0  0  0
    3.5987    0.9183    1.3006 O   0  0  0  0  0  0  0  0  0  0  0  0
    1.7259    1.9324    1.5101 H   0  0  0  0  0  0  0  0  0  0  0  0
    1.1034    1.8359    0.0104 H   0  0  0  0  0  0  0  0  0  0  0  0
    1.0920   -0.4368    1.8687 H   0  0  0  0  0  0  0  0  0  0  0  0
    0.9790   -1.8390   -0.1679 H   0  0  0  0  0  0  0  0  0  0  0  0
    1.1891   -0.4346   -1.2070 H   0  0  0  0  0  0  0  0  0  0  0  0
   -2.9952    1.3549   -1.4843 H   0  0  0  0  0  0  0  0  0  0  0  0
    4.5417    0.6679    1.1989 H   0  0  0  0  0  0  0  0  0  0  0  0
  1  2  1  0
  2  3  1  0
  3  4  1  0
  4  5  1  0
  5  6  2  0
  6  7  1  0
  6  8  1  0
  8  9  2  0
  8 10  1  0
 10 11  1  0
 11 12  2  0
  2 13  1  0
 13 14  2  0
 13 15  1  0
 11  4  1  0
  1 16  1  0
  1 17  1  0
  2 18  1  1
  3 19  1  0
  3 20  1  0
 10 21  1  0
 15 22  1  0
M  END
$$$$
