
     RDKit          3D

 28 29  0  0  0  0  0  0  0  0999 V2000
    4.7300   -1.2706   -0.6429 C   0  0  0  0  0  0  0  0  0  0  0  0
    3.3608   -0.8340   -0.6105 N   0  0  0  0  0  0  0  0  0  0  0  0
    2.3569   -1.6209   -1.0296 N   0  0  0  0  0  0  0  0  0  0  0  0
    1.2686   -0.8795   -0.8801 N   0  0  0  0  0  0  0  0  0  0  0  0
    1.6809    0.3316   -0.3770 C   0  0  0  0  0  0  0  0  0  0  0  0
    0.7143    1.5045   -0.0430 C   0  0  0  0  0  0  0  0  0  0  0  0
    1.1366    2.7075    0.4604 O   0  0  0  0  0  0  0  0  0  0  0  0
    0.0415    3.5412    0.6663 N   0  0  0  0  0  0  0  0  0  0  0  0
   -0.9922    2.8078    0.2815 C   0  0  0  0  0  0  0  0  0  0  0  0
   -2.1939    3.3760    0.3858 O   0  0  0  0  0  0  0  0  0  0  0  0
   -0.6634    1.5300   -0.1858 C   0  0  0  0  0  0  0  0  0  0  0  0
   -1.5999    0.4854   -0.6892 C   0  0  0  0  0  0  0  0  0  0  0  0
   -2.1827   -0.4044    0.4212 C   0  0  2  0  0  0  0  0  0  0  0  0
   -1.1245   -1.1347    1.1684 N   0  0  0  0  0  0  0  0  0  0  0  0
   -3.1852   -1.3908   -0.1932 C   0  0  0  0  0  0  0  0  0  0  0  0
   -3.9000   -1.2008   -1.1636 O   0  0  0  0  0  0  0  0  0  0  0  0
   -3.2640   -2.5606    0.4839 O   0  0  0  0  0  0  0  0  0  0  0  0
    3.0113    0.3990   -0.2085 N   0  0  0  0  0  0  0  0  0  0  0  0
    4.7686   -2.3365   -0.4053 H   0  0  0  0  0  0  0  0  0  0  0  0
    5.3037   -0.7075    0.0975 H   0  0  0  0  0  0  0  0  0  0  0  0
    5.1224   -1.0885   -1.6460 H   0  0  0  0  0  0  0  0  0  0  0  0
   -2.0338    4.2643    0.7503 H   0  0  0  0  0  0  0  0  0  0  0  0
   -2.4232    0.9875   -1.2161 H   0  0  0  0  0  0  0  0  0  0  0  0
   -1.1116   -0.1295   -1.4550 H   0  0  0  0  0  0  0  0  0  0  0  0
   -2.7390    0.2055    1.1427 H   0  0  0  0  0  0  0  0  0  0  0  0
   -0.5430   -1.6505    0.5022 H   0  0  0  0  0  0  0  0  0  0  0  0
   -1.5928   -1.8626    1.7171 H   0  0  0  0  0  0  0  0  0  0  0  0
   -3.9463   -3.0689   -0.0039 H   0  0  0  0  0  0  0  0  0  0  0  0
  1  2  1  0
  2  3  1  0
  3  4  2  0
  4  5  1  0
  5  6  1  0
  6  7  1  0
  7  8  1  0
  8  9  2  0
  9 10  1  0
  9 11  1  0
 11 12  1  0
 12 13  1  0
 13 14  1  0
 13 15  1  0
 15 16  2  0
 15 17  1  0
  5 18  2  0
 18  2  1  0
 11  6  2  0
  1 19  1  0
  1 20  1  0
  1 21  1  0
 10 22  1  0
 12 23  1  0
 12 24  1  0
 13 25  1  1
 14 26  1  0
 14 27  1  0
 17 28  1  0
M  END
$$$$
