
     RDKit          3D

 23 23  0  0  0  0  0  0  0  0999 V2000
   -1.3370   -1.0264    1.2838 N   0  0  0  0  0  0  0  0  0  0  0  0
   -1.6529    0.0279    0.2830 C   0  0  1  0  0  0  0  0  0  0  0  0
   -0.7031   -0.0346   -0.9278 C   0  0  0  0  0  0  0  0  0  0  0  0
    0.7121    0.1406   -0.5648 N   0  0  0  0  0  0  0  0  0  0  0  0
    1.5456   -0.9611   -0.5149 C   0  0  0  0  0  0  0  0  0  0  0  0
    2.8405   -0.8730   -0.1878 C   0  0  0  0  0  0  0  0  0  0  0  0
    3.9640   -2.3537   -0.1133 Br  0  0  0  0  0  0  0  0  0  0  0  0
    3.3840    0.4750    0.1325 C   0  0  0  0  0  0  0  0  0  0  0  0
    4.5518    0.6688    0.4546 O   0  0  0  0  0  0  0  0  0  0  0  0
    2.4915    1.5110    0.0566 N   0  0  0  0  0  0  0  0  0  0  0  0
    1.1631    1.4167   -0.2591 C   0  0  0  0  0  0  0  0  0  0  0  0
    0.4440    2.4123   -0.2491 O   0  0  0  0  0  0  0  0  0  0  0  0
   -3.0965   -0.1249   -0.1982 C   0  0  0  0  0  0  0  0  0  0  0  0
   -3.5088   -0.0272   -1.3424 O   0  0  0  0  0  0  0  0  0  0  0  0
   -3.9616   -0.3521    0.8193 O   0  0  0  0  0  0  0  0  0  0  0  0
   -0.4838   -0.7583    1.7728 H   0  0  0  0  0  0  0  0  0  0  0  0
   -2.0830   -1.0095    1.9855 H   0  0  0  0  0  0  0  0  0  0  0  0
   -1.5823    1.0055    0.7732 H   0  0  0  0  0  0  0  0  0  0  0  0
   -0.9626    0.7638   -1.6357 H   0  0  0  0  0  0  0  0  0  0  0  0
   -0.8266   -0.9797   -1.4732 H   0  0  0  0  0  0  0  0  0  0  0  0
    1.0936   -1.9214   -0.7510 H   0  0  0  0  0  0  0  0  0  0  0  0
    2.8401    2.4301    0.2810 H   0  0  0  0  0  0  0  0  0  0  0  0
   -4.8321   -0.4297    0.3750 H   0  0  0  0  0  0  0  0  0  0  0  0
  1  2  1  0
  2  3  1  0
  3  4  1  0
  4  5  1  0
  5  6  2  0
  6  7  1  0
  6  8  1  0
  8  9  2  0
  8 10  1  0
 10 11  1  0
 11 12  2  0
  2 13  1  0
 13 14  2  0
 13 15  1  0
 11  4  1  0
  1 16  1  0
  1 17  1  0
  2 18  1  1
  3 19  1  0
  3 20  1  0
  5 21  1  0
 10 22  1  0
 15 23  1  0
M  END
$$$$
