
     RDKit          3D

 31 32  0  0  0  0  0  0  0  0999 V2000
    4.3543   -0.1732    2.3869 C   0  0  0  0  0  0  0  0  0  0  0  0
    4.3038   -0.3674    0.8827 C   0  0  0  0  0  0  0  0  0  0  0  0
    2.9545   -0.2989    0.3710 N   0  0  0  0  0  0  0  0  0  0  0  0
    2.4034    0.8598   -0.0267 N   0  0  0  0  0  0  0  0  0  0  0  0
    1.1774    0.5315   -0.4079 N   0  0  0  0  0  0  0  0  0  0  0  0
    1.0508   -0.8230   -0.2112 C   0  0  0  0  0  0  0  0  0  0  0  0
   -0.2463   -1.6250   -0.5207 C   0  0  0  0  0  0  0  0  0  0  0  0
   -0.3624   -2.9757   -0.3180 O   0  0  0  0  0  0  0  0  0  0  0  0
   -1.6402   -3.3961   -0.6745 N   0  0  0  0  0  0  0  0  0  0  0  0
   -2.2399   -2.2847   -1.0739 C   0  0  0  0  0  0  0  0  0  0  0  0
   -3.5075   -2.4044   -1.4697 O   0  0  0  0  0  0  0  0  0  0  0  0
   -1.4415   -1.1362   -1.0224 C   0  0  0  0  0  0  0  0  0  0  0  0
   -1.8297    0.2500   -1.4089 C   0  0  0  0  0  0  0  0  0  0  0  0
   -2.5027    1.0391   -0.2735 C   0  0  0  0  0  0  0  0  0  0  0  0
   -1.6174    1.1810    0.9129 N   0  0  0  0  0  0  0  0  0  0  0  0
   -2.9260    2.4185   -0.7966 C   0  0  0  0  0  0  0  0  0  0  0  0
   -3.2809    2.6954   -1.9307 O   0  0  0  0  0  0  0  0  0  0  0  0
   -2.9204    3.3756    0.1610 O   0  0  0  0  0  0  0  0  0  0  0  0
    2.1690   -1.3851    0.2751 N   0  0  0  0  0  0  0  0  0  0  0  0
    5.3872   -0.2304    2.7436 H   0  0  0  0  0  0  0  0  0  0  0  0
    3.9470    0.8024    2.6727 H   0  0  0  0  0  0  0  0  0  0  0  0
    3.7706   -0.9423    2.9039 H   0  0  0  0  0  0  0  0  0  0  0  0
    4.7157   -1.3437    0.6053 H   0  0  0  0  0  0  0  0  0  0  0  0
    4.8930    0.4029    0.3737 H   0  0  0  0  0  0  0  0  0  0  0  0
   -3.7271   -3.3471   -1.3667 H   0  0  0  0  0  0  0  0  0  0  0  0
   -2.5202    0.1882   -2.2614 H   0  0  0  0  0  0  0  0  0  0  0  0
   -0.9604    0.7980   -1.7922 H   0  0  0  0  0  0  0  0  0  0  0  0
   -3.4167    0.5289    0.0524 H   0  0  0  0  0  0  0  0  0  0  0  0
   -2.0347    1.8980    1.5145 H   0  0  0  0  0  0  0  0  0  0  0  0
   -0.7248    1.5843    0.6152 H   0  0  0  0  0  0  0  0  0  0  0  0
   -3.2278    4.1797   -0.3087 H   0  0  0  0  0  0  0  0  0  0  0  0
  1  2  1  0
  2  3  1  0
  3  4  1  0
  4  5  2  0
  5  6  1  0
  6  7  1  0
  7  8  1  0
  8  9  1  0
  9 10  2  0
 10 11  1  0
 10 12  1  0
 12 13  1  0
 13 14  1  0
 14 15  1  0
 14 16  1  0
 16 17  2  0
 16 18  1  0
  6 19  2  0
 19  3  1  0
 12  7  2  0
  1 20  1  0
  1 21  1  0
  1 22  1  0
  2 23  1  0
  2 24  1  0
 11 25  1  0
 13 26  1  0
 13 27  1  0
 14 28  1  0
 15 29  1  0
 15 30  1  0
 18 31  1  0
M  END
$$$$
