
     RDKit          3D

 19 19  0  0  0  0  0  0  0  0999 V2000
   -2.3137    0.6760   -1.0933 N   0  0  0  0  0  0  0  0  0  0  0  0
   -1.0885    0.4715   -0.2714 C   0  0  2  0  0  0  0  0  0  0  0  0
   -0.2284   -0.6420   -0.8792 C   0  0  0  0  0  0  0  0  0  0  0  0
    1.1094   -0.7742   -0.2277 C   0  0  0  0  0  0  0  0  0  0  0  0
    1.3512   -1.8068    0.5930 N   0  0  0  0  0  0  0  0  0  0  0  0
    2.9372   -1.5932    1.1051 S   0  0  0  0  0  0  0  0  0  0  0  0
    3.3307   -0.1793    0.2847 N   0  0  0  0  0  0  0  0  0  0  0  0
    2.2191    0.1074   -0.3788 C   0  0  0  0  0  0  0  0  0  0  0  0
    2.2809    1.2187   -1.1196 O   0  0  0  0  0  0  0  0  0  0  0  0
   -1.4998    0.0980    1.1551 C   0  0  0  0  0  0  0  0  0  0  0  0
   -2.5147   -0.5028    1.4759 O   0  0  0  0  0  0  0  0  0  0  0  0
   -0.6260    0.5188    2.0891 O   0  0  0  0  0  0  0  0  0  0  0  0
   -2.8605    1.4294   -0.6721 H   0  0  0  0  0  0  0  0  0  0  0  0
   -2.9051   -0.1539   -0.9850 H   0  0  0  0  0  0  0  0  0  0  0  0
   -0.5519    1.4266   -0.2446 H   0  0  0  0  0  0  0  0  0  0  0  0
   -0.7601   -1.6020   -0.8247 H   0  0  0  0  0  0  0  0  0  0  0  0
   -0.0676   -0.4416   -1.9472 H   0  0  0  0  0  0  0  0  0  0  0  0
    3.1809    1.5671   -0.9928 H   0  0  0  0  0  0  0  0  0  0  0  0
   -0.9932    0.1823    2.9335 H   0  0  0  0  0  0  0  0  0  0  0  0
  1  2  1  0
  2  3  1  0
  3  4  1  0
  4  5  2  0
  5  6  1  0
  6  7  1  0
  7  8  2  0
  8  9  1  0
  2 10  1  0
 10 11  2  0
 10 12  1  0
  8  4  1  0
  1 13  1  0
  1 14  1  0
  2 15  1  1
  3 16  1  0
  3 17  1  0
  9 18  1  0
 12 19  1  0
M  END
$$$$
