
     RDKit          3D

 27 29  0  0  0  0  0  0  0  0999 V2000
    2.9904   -1.9150    1.1872 O   0  0  0  0  0  0  0  0  0  0  0  0
    2.2442   -1.6143   -0.0135 S   0  0  0  0  0  0  0  0  0  0  0  0
    2.7711   -1.8615   -1.3366 O   0  0  0  0  0  0  0  0  0  0  0  0
    0.7863   -2.4098    0.1227 N   0  0  0  0  0  0  0  0  0  0  0  0
   -0.2188   -1.8318   -0.7334 C   0  0  0  0  0  0  0  0  0  0  0  0
   -0.6208   -0.5426   -0.1852 N   0  0  0  0  0  0  0  0  0  0  0  0
   -2.0084   -0.1326   -0.4805 C   0  0  0  0  0  0  0  0  0  0  0  0
   -3.1805   -0.9317    0.0302 C   0  0  0  0  0  0  0  0  0  0  0  0
   -2.9025    0.4251    0.5967 C   0  0  0  0  0  0  0  0  0  0  0  0
    0.4075    0.4238   -0.0527 C   0  0  0  0  0  0  0  0  0  0  0  0
    0.1139    1.7981    0.0359 C   0  0  0  0  0  0  0  0  0  0  0  0
    1.1206    2.7585    0.1995 C   0  0  0  0  0  0  0  0  0  0  0  0
    2.4457    2.3604    0.2888 C   0  0  0  0  0  0  0  0  0  0  0  0
    3.4041    3.2809    0.4492 F   0  0  0  0  0  0  0  0  0  0  0  0
    2.7851    1.0221    0.2181 C   0  0  0  0  0  0  0  0  0  0  0  0
    1.7665    0.0755    0.0479 C   0  0  0  0  0  0  0  0  0  0  0  0
    0.5004   -2.5042    1.0940 H   0  0  0  0  0  0  0  0  0  0  0  0
    0.1132   -1.7442   -1.7752 H   0  0  0  0  0  0  0  0  0  0  0  0
   -1.0684   -2.5243   -0.7433 H   0  0  0  0  0  0  0  0  0  0  0  0
   -2.1135    0.2853   -1.4804 H   0  0  0  0  0  0  0  0  0  0  0  0
   -2.9975   -1.7839    0.6739 H   0  0  0  0  0  0  0  0  0  0  0  0
   -4.0403   -1.0431   -0.6204 H   0  0  0  0  0  0  0  0  0  0  0  0
   -2.5146    0.4811    1.6074 H   0  0  0  0  0  0  0  0  0  0  0  0
   -3.5719    1.2347    0.3312 H   0  0  0  0  0  0  0  0  0  0  0  0
   -0.9103    2.1559   -0.0210 H   0  0  0  0  0  0  0  0  0  0  0  0
    0.8718    3.8136    0.2623 H   0  0  0  0  0  0  0  0  0  0  0  0
    3.8265    0.7237    0.2974 H   0  0  0  0  0  0  0  0  0  0  0  0
  1  2  2  0
  2  3  2  0
  2  4  1  0
  4  5  1  0
  5  6  1  0
  6  7  1  0
  7  8  1  0
  8  9  1  0
  6 10  1  0
 10 11  1  0
 11 12  2  0
 12 13  1  0
 13 14  1  0
 13 15  2  0
 15 16  1  0
 16  2  1  0
  9  7  1  0
 16 10  2  0
  4 17  1  0
  5 18  1  0
  5 19  1  0
  7 20  1  0
  8 21  1  0
  8 22  1  0
  9 23  1  0
  9 24  1  0
 11 25  1  0
 12 26  1  0
 15 27  1  0
M  END
$$$$
