
     RDKit          3D

 23 23  0  0  0  0  0  0  0  0999 V2000
   -1.3560    1.4014   -0.7337 N   0  0  0  0  0  0  0  0  0  0  0  0
   -1.6633    0.0736   -0.1374 C   0  0  1  0  0  0  0  0  0  0  0  0
   -0.6831   -0.2813    0.9963 C   0  0  0  0  0  0  0  0  0  0  0  0
    0.7197   -0.3332    0.5550 N   0  0  0  0  0  0  0  0  0  0  0  0
    1.5682    0.7171    0.8522 C   0  0  0  0  0  0  0  0  0  0  0  0
    2.8538    0.7371    0.4765 C   0  0  0  0  0  0  0  0  0  0  0  0
    4.0965    2.2981    0.9152 I   0  0  0  0  0  0  0  0  0  0  0  0
    3.3674   -0.4311   -0.2927 C   0  0  0  0  0  0  0  0  0  0  0  0
    4.5220   -0.5183   -0.6985 O   0  0  0  0  0  0  0  0  0  0  0  0
    2.4605   -1.4271   -0.5401 N   0  0  0  0  0  0  0  0  0  0  0  0
    1.1426   -1.4356   -0.1728 C   0  0  0  0  0  0  0  0  0  0  0  0
    0.4080   -2.3658   -0.4947 O   0  0  0  0  0  0  0  0  0  0  0  0
   -3.0921    0.0644    0.4077 C   0  0  0  0  0  0  0  0  0  0  0  0
   -3.4776   -0.4089    1.4641 O   0  0  0  0  0  0  0  0  0  0  0  0
   -3.9785    0.6248   -0.4500 O   0  0  0  0  0  0  0  0  0  0  0  0
   -0.5179    1.3087   -1.3064 H   0  0  0  0  0  0  0  0  0  0  0  0
   -2.1180    1.6255   -1.3805 H   0  0  0  0  0  0  0  0  0  0  0  0
   -1.6197   -0.6822   -0.9299 H   0  0  0  0  0  0  0  0  0  0  0  0
   -0.9378   -1.2697    1.4016 H   0  0  0  0  0  0  0  0  0  0  0  0
   -0.7784    0.4257    1.8311 H   0  0  0  0  0  0  0  0  0  0  0  0
    1.1315    1.5427    1.4092 H   0  0  0  0  0  0  0  0  0  0  0  0
    2.7886   -2.2200   -1.0694 H   0  0  0  0  0  0  0  0  0  0  0  0
   -4.8365    0.5539    0.0190 H   0  0  0  0  0  0  0  0  0  0  0  0
  1  2  1  0
  2  3  1  0
  3  4  1  0
  4  5  1  0
  5  6  2  0
  6  7  1  0
  6  8  1  0
  8  9  2  0
  8 10  1  0
 10 11  1  0
 11 12  2  0
  2 13  1  0
 13 14  2  0
 13 15  1  0
 11  4  1  0
  1 16  1  0
  1 17  1  0
  2 18  1  6
  3 19  1  0
  3 20  1  0
  5 21  1  0
 10 22  1  0
 15 23  1  0
M  END
$$$$
