
     RDKit          3D

 21 22  0  0  0  0  0  0  0  0999 V2000
   -1.3482   -1.6489    1.8384 O   0  0  0  0  0  0  0  0  0  0  0  0
   -1.7303   -0.7609    1.0946 C   0  0  0  0  0  0  0  0  0  0  0  0
   -2.6334    0.1450    1.5404 O   0  0  0  0  0  0  0  0  0  0  0  0
   -1.3595   -0.5630   -0.3824 C   0  0  0  0  0  0  0  0  0  0  0  0
    0.0150   -1.2193   -0.7153 C   0  0  0  0  0  0  0  0  0  0  0  0
    1.1160   -0.2769   -0.4262 C   0  0  0  0  0  0  0  0  0  0  0  0
    2.4961   -0.3676   -0.3112 C   0  0  0  0  0  0  0  0  0  0  0  0
    3.2865   -1.4328   -0.4362 O   0  0  0  0  0  0  0  0  0  0  0  0
    3.0925    0.7913   -0.0338 N   0  0  0  0  0  0  0  0  0  0  0  0
    2.0394    1.7157    0.0355 O   0  0  0  0  0  0  0  0  0  0  0  0
    0.8816    1.0550   -0.2073 C   0  0  0  0  0  0  0  0  0  0  0  0
   -0.4209    1.7436   -0.1753 C   0  0  0  0  0  0  0  0  0  0  0  0
   -1.4662    0.8853   -0.7866 N   0  0  0  0  0  0  0  0  0  0  0  0
   -2.7933   -0.1259    2.4699 H   0  0  0  0  0  0  0  0  0  0  0  0
   -2.1305   -1.1081   -0.9419 H   0  0  0  0  0  0  0  0  0  0  0  0
    0.1569   -2.1546   -0.1632 H   0  0  0  0  0  0  0  0  0  0  0  0
    0.0409   -1.4608   -1.7853 H   0  0  0  0  0  0  0  0  0  0  0  0
    4.1907   -1.1069   -0.2868 H   0  0  0  0  0  0  0  0  0  0  0  0
   -0.6871    1.9801    0.8606 H   0  0  0  0  0  0  0  0  0  0  0  0
   -0.3726    2.6854   -0.7308 H   0  0  0  0  0  0  0  0  0  0  0  0
   -2.3736    1.2245   -0.4572 H   0  0  0  0  0  0  0  0  0  0  0  0
  1  2  2  0
  2  3  1  0
  2  4  1  0
  4  5  1  0
  5  6  1  0
  6  7  1  0
  7  8  1  0
  7  9  2  0
  9 10  1  0
 10 11  1  0
 11 12  1  0
 12 13  1  0
 13  4  1  0
 11  6  2  0
  3 14  1  0
  4 15  1  0
  5 16  1  0
  5 17  1  0
  8 18  1  0
 12 19  1  0
 12 20  1  0
 13 21  1  0
M  END
$$$$
