
     RDKit          3D

 19 19  0  0  0  0  0  0  0  0999 V2000
   -2.0427    0.4550   -1.6204 N   0  0  0  0  0  0  0  0  0  0  0  0
   -0.9064   -0.0641   -0.8093 C   0  0  1  0  0  0  0  0  0  0  0  0
   -0.4414    1.0038    0.1867 C   0  0  0  0  0  0  0  0  0  0  0  0
    0.8179    0.6343    0.9004 C   0  0  0  0  0  0  0  0  0  0  0  0
    0.7687    0.2598    2.1871 N   0  0  0  0  0  0  0  0  0  0  0  0
    2.3632   -0.0634    2.6073 S   0  0  0  0  0  0  0  0  0  0  0  0
    3.1323    0.2706    1.1500 N   0  0  0  0  0  0  0  0  0  0  0  0
    2.1345    0.6307    0.3544 C   0  0  0  0  0  0  0  0  0  0  0  0
    2.4996    0.9471   -0.8922 O   0  0  0  0  0  0  0  0  0  0  0  0
   -1.3594   -1.3197   -0.0598 C   0  0  0  0  0  0  0  0  0  0  0  0
   -2.4956   -1.5563    0.3239 O   0  0  0  0  0  0  0  0  0  0  0  0
   -0.3671   -2.2069    0.1422 O   0  0  0  0  0  0  0  0  0  0  0  0
   -2.8512    0.5544   -0.9984 H   0  0  0  0  0  0  0  0  0  0  0  0
   -2.3236   -0.2718   -2.2812 H   0  0  0  0  0  0  0  0  0  0  0  0
   -0.1080   -0.3396   -1.5076 H   0  0  0  0  0  0  0  0  0  0  0  0
   -0.2662    1.9500   -0.3430 H   0  0  0  0  0  0  0  0  0  0  0  0
   -1.2337    1.2062    0.9206 H   0  0  0  0  0  0  0  0  0  0  0  0
    3.4666    0.8381   -0.9166 H   0  0  0  0  0  0  0  0  0  0  0  0
   -0.7877   -2.9282    0.6559 H   0  0  0  0  0  0  0  0  0  0  0  0
  1  2  1  0
  2  3  1  0
  3  4  1  0
  4  5  2  0
  5  6  1  0
  6  7  1  0
  7  8  2  0
  8  9  1  0
  2 10  1  0
 10 11  2  0
 10 12  1  0
  8  4  1  0
  1 13  1  0
  1 14  1  0
  2 15  1  6
  3 16  1  0
  3 17  1  0
  9 18  1  0
 12 19  1  0
M  END
$$$$
