
     RDKit          3D

 48 50  0  0  0  0  0  0  0  0999 V2000
    0.6828    0.0000    0.0000 Cl  0  0  0  0  0  0  0  0  0  0  0  0
   -4.6836    3.0884   -0.4164 O   0  0  0  0  0  0  0  0  0  0  0  0
   -4.6682    1.9284   -0.9421 C   0  0  0  0  0  0  0  0  0  0  0  0
   -4.9870    1.7917   -2.2793 O   0  0  0  0  0  0  0  0  0  0  0  0
   -4.3018    0.8042   -0.0537 C   0  0  2  0  0  0  0  0  0  0  0  0
   -3.0346    0.9967    0.7045 C   0  0  0  0  0  0  0  0  0  0  0  0
   -1.8710    0.2454    0.0446 C   0  0  1  0  0  0  0  0  0  0  0  0
   -0.5908    0.5986    0.7512 C   0  0  0  0  0  0  0  0  0  0  0  0
    0.3919   -0.5172    0.4017 C   0  0  1  0  0  0  0  0  0  0  0  0
    1.7067   -0.1612    0.6563 O   0  0  0  0  0  0  0  0  0  0  0  0
    2.7680   -0.1265   -0.2005 C   0  0  0  0  0  0  0  0  0  0  0  0
    2.7233   -0.4550   -1.5390 C   0  0  0  0  0  0  0  0  0  0  0  0
    3.8339   -0.4014   -2.3631 C   0  0  0  0  0  0  0  0  0  0  0  0
    5.0601   -0.0065   -1.8614 C   0  0  0  0  0  0  0  0  0  0  0  0
    6.4492    0.0559   -2.9112 Cl  0  0  0  0  0  0  0  0  0  0  0  0
    5.1117    0.3252   -0.5158 C   0  0  0  0  0  0  0  0  0  0  0  0
    3.9962    0.2686    0.3000 C   0  0  0  0  0  0  0  0  0  0  0  0
    4.1837    0.6453    1.7064 C   0  0  0  0  0  0  0  0  0  0  0  0
    3.2295    0.6584    2.6625 N   0  0  0  0  0  0  0  0  0  0  0  0
    3.7530    1.0506    3.8168 N   0  0  0  0  0  0  0  0  0  0  0  0
    5.0411    1.2933    3.6202 N   0  0  0  0  0  0  0  0  0  0  0  0
    5.3066    1.0460    2.3298 N   0  0  0  0  0  0  0  0  0  0  0  0
   -0.0711   -1.6679    1.2899 C   0  0  0  0  0  0  0  0  0  0  0  0
   -1.4661   -2.0795    0.9312 C   0  0  0  0  0  0  0  0  0  0  0  0
   -2.1282   -1.2188   -0.0940 C   0  0  1  0  0  0  0  0  0  0  0  0
   -3.6250   -1.4405    0.0054 C   0  0  0  0  0  0  0  0  0  0  0  0
   -4.3279   -0.4451   -0.7904 N   0  0  0  0  0  0  0  0  0  0  0  0
   -0.6828    0.0000    0.0000 H   0  0  0  0  0  0  0  0  0  0  0  0
   -5.6387    2.4446   -2.7348 H   0  0  0  0  0  0  0  0  0  0  0  0
   -5.1392    0.7072    0.6981 H   0  0  0  0  0  0  0  0  0  0  0  0
   -2.7382    2.0717    0.6579 H   0  0  0  0  0  0  0  0  0  0  0  0
   -3.1529    0.7340    1.7697 H   0  0  0  0  0  0  0  0  0  0  0  0
   -1.7972    0.7172   -0.9726 H   0  0  0  0  0  0  0  0  0  0  0  0
   -0.7966    0.6212    1.8362 H   0  0  0  0  0  0  0  0  0  0  0  0
   -0.2297    1.5829    0.4027 H   0  0  0  0  0  0  0  0  0  0  0  0
    0.2263   -0.8036   -0.6473 H   0  0  0  0  0  0  0  0  0  0  0  0
    1.7799   -0.7681   -1.9639 H   0  0  0  0  0  0  0  0  0  0  0  0
    3.7544   -0.6710   -3.4209 H   0  0  0  0  0  0  0  0  0  0  0  0
    6.0782    0.6381   -0.1135 H   0  0  0  0  0  0  0  0  0  0  0  0
    6.2252    1.1407    1.8602 H   0  0  0  0  0  0  0  0  0  0  0  0
    0.6383   -2.5090    1.3051 H   0  0  0  0  0  0  0  0  0  0  0  0
   -0.0917   -1.2534    2.3238 H   0  0  0  0  0  0  0  0  0  0  0  0
   -2.1226   -2.1540    1.8264 H   0  0  0  0  0  0  0  0  0  0  0  0
   -1.4074   -3.1088    0.5132 H   0  0  0  0  0  0  0  0  0  0  0  0
   -1.8318   -1.5715   -1.1136 H   0  0  0  0  0  0  0  0  0  0  0  0
   -3.8707   -2.4277   -0.4820 H   0  0  0  0  0  0  0  0  0  0  0  0
   -3.9930   -1.3885    1.0527 H   0  0  0  0  0  0  0  0  0  0  0  0
   -3.6922   -0.2790   -1.6275 H   0  0  0  0  0  0  0  0  0  0  0  0
  2  3  2  0
  3  4  1  0
  3  5  1  0
  5  6  1  0
  6  7  1  0
  7  8  1  0
  8  9  1  0
  9 10  1  0
 10 11  1  0
 11 12  1  0
 12 13  2  0
 13 14  1  0
 14 15  1  0
 14 16  2  0
 16 17  1  0
 17 18  1  0
 18 19  2  0
 19 20  1  0
 20 21  2  0
 21 22  1  0
  9 23  1  0
 23 24  1  0
 24 25  1  0
 25 26  1  0
 26 27  1  0
 27  5  1  0
 25  7  1  0
 17 11  2  0
 22 18  1  0
  1 28  1  0
  4 29  1  0
  5 30  1  1
  6 31  1  0
  6 32  1  0
  7 33  1  6
  8 34  1  0
  8 35  1  0
  9 36  1  6
 12 37  1  0
 13 38  1  0
 16 39  1  0
 22 40  1  0
 23 41  1  0
 23 42  1  0
 24 43  1  0
 24 44  1  0
 25 45  1  6
 26 46  1  0
 26 47  1  0
 27 48  1  0
M  END
$$$$
