
     RDKit          3D

 58 61  0  0  0  0  0  0  0  0999 V2000
    0.6828    0.0000    0.0000 Cl  0  0  0  0  0  0  0  0  0  0  0  0
    5.3053   -2.5240    1.9065 O   0  0  0  0  0  0  0  0  0  0  0  0
    5.4637   -1.9037    0.8080 C   0  0  0  0  0  0  0  0  0  0  0  0
    6.0110   -2.6220   -0.2322 O   0  0  0  0  0  0  0  0  0  0  0  0
    5.0538   -0.4959    0.7490 C   0  0  2  0  0  0  0  0  0  0  0  0
    3.5743   -0.4145    1.0692 C   0  0  0  0  0  0  0  0  0  0  0  0
    2.7783   -1.0939   -0.0080 C   0  0  1  0  0  0  0  0  0  0  0  0
    1.3455   -1.0710    0.3774 C   0  0  0  0  0  0  0  0  0  0  0  0
    0.5210    0.0230   -0.2500 C   0  0  1  0  0  0  0  0  0  0  0  0
   -0.2789    0.6514    0.7113 O   0  0  0  0  0  0  0  0  0  0  0  0
   -1.6392    0.7628    0.6807 C   0  0  0  0  0  0  0  0  0  0  0  0
   -2.4765    0.2819   -0.2930 C   0  0  0  0  0  0  0  0  0  0  0  0
   -3.8656    0.4457   -0.2373 C   0  0  0  0  0  0  0  0  0  0  0  0
   -4.7338   -0.0745   -1.2848 C   0  0  0  0  0  0  0  0  0  0  0  0
   -5.9156    0.6147   -1.5615 C   0  0  0  0  0  0  0  0  0  0  0  0
   -6.7578    0.1286   -2.5625 C   0  0  0  0  0  0  0  0  0  0  0  0
   -6.4450   -1.0110   -3.2766 C   0  0  0  0  0  0  0  0  0  0  0  0
   -7.5688   -1.5505   -4.5224 Cl  0  0  0  0  0  0  0  0  0  0  0  0
   -5.2758   -1.6870   -2.9980 C   0  0  0  0  0  0  0  0  0  0  0  0
   -4.4202   -1.2170   -2.0007 C   0  0  0  0  0  0  0  0  0  0  0  0
   -4.4509    1.1082    0.8178 C   0  0  0  0  0  0  0  0  0  0  0  0
   -3.6196    1.5969    1.8041 C   0  0  0  0  0  0  0  0  0  0  0  0
   -2.2490    1.4314    1.7423 C   0  0  0  0  0  0  0  0  0  0  0  0
   -1.4243    1.9711    2.8162 C   0  0  0  0  0  0  0  0  0  0  0  0
   -1.8493    2.6371    3.9032 N   0  0  0  0  0  0  0  0  0  0  0  0
   -0.7939    2.9706    4.6569 N   0  0  0  0  0  0  0  0  0  0  0  0
    0.2818    2.5146    4.0423 N   0  0  0  0  0  0  0  0  0  0  0  0
   -0.0832    1.9072    2.9266 N   0  0  0  0  0  0  0  0  0  0  0  0
    1.3849    1.0956   -0.8758 C   0  0  0  0  0  0  0  0  0  0  0  0
    2.3547    0.5508   -1.8613 C   0  0  0  0  0  0  0  0  0  0  0  0
    3.0906   -0.6684   -1.3990 C   0  0  1  0  0  0  0  0  0  0  0  0
    4.5537   -0.4655   -1.6028 C   0  0  0  0  0  0  0  0  0  0  0  0
    5.2599    0.1364   -0.5180 N   0  0  0  0  0  0  0  0  0  0  0  0
   -0.6828    0.0000    0.0000 H   0  0  0  0  0  0  0  0  0  0  0  0
    6.7571   -3.2897    0.0138 H   0  0  0  0  0  0  0  0  0  0  0  0
    5.6464    0.0421    1.5166 H   0  0  0  0  0  0  0  0  0  0  0  0
    3.4495   -1.0647    1.9846 H   0  0  0  0  0  0  0  0  0  0  0  0
    3.2289    0.5719    1.3689 H   0  0  0  0  0  0  0  0  0  0  0  0
    3.0887   -2.1806    0.0556 H   0  0  0  0  0  0  0  0  0  0  0  0
    0.8396   -2.0450    0.1151 H   0  0  0  0  0  0  0  0  0  0  0  0
    1.2364   -0.9953    1.4770 H   0  0  0  0  0  0  0  0  0  0  0  0
   -0.1194   -0.3749   -1.0508 H   0  0  0  0  0  0  0  0  0  0  0  0
   -2.0997   -0.2385   -1.1354 H   0  0  0  0  0  0  0  0  0  0  0  0
   -6.1728    1.5214   -0.9993 H   0  0  0  0  0  0  0  0  0  0  0  0
   -7.6794    0.6997   -2.7506 H   0  0  0  0  0  0  0  0  0  0  0  0
   -5.0464   -2.5822   -3.5708 H   0  0  0  0  0  0  0  0  0  0  0  0
   -3.5012   -1.7416   -1.7763 H   0  0  0  0  0  0  0  0  0  0  0  0
   -5.5096    1.2691    0.9228 H   0  0  0  0  0  0  0  0  0  0  0  0
   -4.0380    2.1246    2.6522 H   0  0  0  0  0  0  0  0  0  0  0  0
    0.5922    1.4626    2.2656 H   0  0  0  0  0  0  0  0  0  0  0  0
    0.6582    1.7363   -1.4576 H   0  0  0  0  0  0  0  0  0  0  0  0
    1.8296    1.7947   -0.1475 H   0  0  0  0  0  0  0  0  0  0  0  0
    3.0773    1.3860   -2.0990 H   0  0  0  0  0  0  0  0  0  0  0  0
    1.8406    0.3657   -2.8271 H   0  0  0  0  0  0  0  0  0  0  0  0
    2.8075   -1.5254   -2.0802 H   0  0  0  0  0  0  0  0  0  0  0  0
    4.6726    0.2439   -2.4753 H   0  0  0  0  0  0  0  0  0  0  0  0
    5.0538   -1.4007   -1.9780 H   0  0  0  0  0  0  0  0  0  0  0  0
    6.2568    0.1914   -0.7906 H   0  0  0  0  0  0  0  0  0  0  0  0
  2  3  2  0
  3  4  1  0
  3  5  1  0
  5  6  1  0
  6  7  1  0
  7  8  1  0
  8  9  1  0
  9 10  1  0
 10 11  1  0
 11 12  1  0
 12 13  2  0
 13 14  1  0
 14 15  1  0
 15 16  2  0
 16 17  1  0
 17 18  1  0
 17 19  2  0
 19 20  1  0
 13 21  1  0
 21 22  2  0
 22 23  1  0
 23 24  1  0
 24 25  2  0
 25 26  1  0
 26 27  2  0
 27 28  1  0
  9 29  1  0
 29 30  1  0
 30 31  1  0
 31 32  1  0
 32 33  1  0
 33  5  1  0
 31  7  1  0
 23 11  2  0
 28 24  1  0
 20 14  2  0
  1 34  1  0
  4 35  1  0
  5 36  1  1
  6 37  1  0
  6 38  1  0
  7 39  1  6
  8 40  1  0
  8 41  1  0
  9 42  1  6
 12 43  1  0
 15 44  1  0
 16 45  1  0
 19 46  1  0
 20 47  1  0
 21 48  1  0
 22 49  1  0
 28 50  1  0
 29 51  1  0
 29 52  1  0
 30 53  1  0
 30 54  1  0
 31 55  1  6
 32 56  1  0
 32 57  1  0
 33 58  1  0
M  END
$$$$
