
     RDKit          3D

 22 22  0  0  0  0  0  0  0  0999 V2000
    1.2524    1.2569   -0.7861 N   0  0  0  0  0  0  0  0  0  0  0  0
    1.4910    0.3531    0.3752 C   0  0  1  0  0  0  0  0  0  0  0  0
    0.6007   -0.9032    0.3712 C   0  0  0  0  0  0  0  0  0  0  0  0
   -0.8229   -0.5894    0.2582 N   0  0  0  0  0  0  0  0  0  0  0  0
   -1.4739   -0.3022    1.4411 N   0  0  0  0  0  0  0  0  0  0  0  0
   -2.7083    0.0764    1.3597 C   0  0  0  0  0  0  0  0  0  0  0  0
   -3.4368    0.2125    0.0604 C   0  0  0  0  0  0  0  0  0  0  0  0
   -4.5950    0.5982    0.0533 O   0  0  0  0  0  0  0  0  0  0  0  0
   -2.7116   -0.1181   -1.0405 N   0  0  0  0  0  0  0  0  0  0  0  0
   -1.3982   -0.4852   -1.0065 C   0  0  0  0  0  0  0  0  0  0  0  0
   -0.7986   -0.7085   -2.0584 O   0  0  0  0  0  0  0  0  0  0  0  0
    2.9531   -0.0995    0.4191 C   0  0  0  0  0  0  0  0  0  0  0  0
    3.3964   -1.0858    0.9848 O   0  0  0  0  0  0  0  0  0  0  0  0
    3.7945    0.7442   -0.2240 O   0  0  0  0  0  0  0  0  0  0  0  0
    2.1014    1.8163   -0.9136 H   0  0  0  0  0  0  0  0  0  0  0  0
    1.1710    0.6905   -1.6348 H   0  0  0  0  0  0  0  0  0  0  0  0
    1.3082    0.9381    1.2836 H   0  0  0  0  0  0  0  0  0  0  0  0
    0.7461   -1.4786    1.2943 H   0  0  0  0  0  0  0  0  0  0  0  0
    0.8845   -1.5649   -0.4572 H   0  0  0  0  0  0  0  0  0  0  0  0
   -3.2949    0.3237    2.2574 H   0  0  0  0  0  0  0  0  0  0  0  0
   -3.1392   -0.0187   -1.9465 H   0  0  0  0  0  0  0  0  0  0  0  0
    4.6800    0.3441   -0.0907 H   0  0  0  0  0  0  0  0  0  0  0  0
  1  2  1  0
  2  3  1  0
  3  4  1  0
  4  5  1  0
  5  6  2  0
  6  7  1  0
  7  8  2  0
  7  9  1  0
  9 10  1  0
 10 11  2  0
  2 12  1  0
 12 13  2  0
 12 14  1  0
 10  4  1  0
  1 15  1  0
  1 16  1  0
  2 17  1  1
  3 18  1  0
  3 19  1  0
  6 20  1  0
  9 21  1  0
 14 22  1  0
M  END
$$$$
