
     RDKit          3D

 20 20  0  0  0  0  0  0  0  0999 V2000
   -2.8700   -0.3225   -0.9977 N   0  0  0  0  0  0  0  0  0  0  0  0
   -1.5023    0.1403   -0.6375 C   0  0  0  0  0  0  0  0  0  0  0  0
   -0.6176   -1.0678   -0.3056 C   0  0  0  0  0  0  0  0  0  0  0  0
    0.8230   -0.7172   -0.2244 C   0  0  0  0  0  0  0  0  0  0  0  0
    1.4685   -0.5324   -1.4178 O   0  0  0  0  0  0  0  0  0  0  0  0
    2.8036   -0.2081   -1.1777 N   0  0  0  0  0  0  0  0  0  0  0  0
    2.9097   -0.2134    0.1473 C   0  0  0  0  0  0  0  0  0  0  0  0
    4.1149    0.0739    0.6445 O   0  0  0  0  0  0  0  0  0  0  0  0
    1.7177   -0.5241    0.7969 C   0  0  0  0  0  0  0  0  0  0  0  0
    1.4480   -0.6300    2.6380 Br  0  0  0  0  0  0  0  0  0  0  0  0
   -1.5966    1.0768    0.5710 C   0  0  0  0  0  0  0  0  0  0  0  0
   -2.4659    1.0545    1.4297 O   0  0  0  0  0  0  0  0  0  0  0  0
   -0.6020    1.9814    0.6261 O   0  0  0  0  0  0  0  0  0  0  0  0
   -3.4313    0.4945   -1.2464 H   0  0  0  0  0  0  0  0  0  0  0  0
   -3.3162   -0.6834   -0.1488 H   0  0  0  0  0  0  0  0  0  0  0  0
   -1.1120    0.7046   -1.4922 H   0  0  0  0  0  0  0  0  0  0  0  0
   -0.7343   -1.8360   -1.0816 H   0  0  0  0  0  0  0  0  0  0  0  0
   -0.9390   -1.5294    0.6367 H   0  0  0  0  0  0  0  0  0  0  0  0
    4.6888    0.2319   -0.1250 H   0  0  0  0  0  0  0  0  0  0  0  0
   -0.7869    2.5062    1.4337 H   0  0  0  0  0  0  0  0  0  0  0  0
  1  2  1  0
  2  3  1  0
  3  4  1  0
  4  5  1  0
  5  6  1  0
  6  7  2  0
  7  8  1  0
  7  9  1  0
  9 10  1  0
  2 11  1  0
 11 12  2  0
 11 13  1  0
  9  4  2  0
  1 14  1  0
  1 15  1  0
  2 16  1  0
  3 17  1  0
  3 18  1  0
  8 19  1  0
 13 20  1  0
M  END
$$$$
