
     RDKit          3D

 20 20  0  0  0  0  0  0  0  0999 V2000
   -2.9798   -0.3175   -0.5727 N   0  0  0  0  0  0  0  0  0  0  0  0
   -1.5476    0.0818   -0.5133 C   0  0  0  0  0  0  0  0  0  0  0  0
   -0.7342   -1.0140    0.1868 C   0  0  0  0  0  0  0  0  0  0  0  0
    0.7302   -0.8431    0.0077 C   0  0  0  0  0  0  0  0  0  0  0  0
    1.2388   -1.2185   -1.2049 O   0  0  0  0  0  0  0  0  0  0  0  0
    2.6141   -0.9966   -1.2187 N   0  0  0  0  0  0  0  0  0  0  0  0
    2.8767   -0.4998   -0.0143 C   0  0  0  0  0  0  0  0  0  0  0  0
    4.1540   -0.1952    0.2312 O   0  0  0  0  0  0  0  0  0  0  0  0
    1.7496   -0.3784    0.8049 C   0  0  0  0  0  0  0  0  0  0  0  0
    1.6809    0.2107    2.3870 Cl  0  0  0  0  0  0  0  0  0  0  0  0
   -1.4308    1.4036    0.2527 C   0  0  0  0  0  0  0  0  0  0  0  0
   -2.2218    1.8235    1.0843 O   0  0  0  0  0  0  0  0  0  0  0  0
   -0.3365    2.1156   -0.0732 O   0  0  0  0  0  0  0  0  0  0  0  0
   -3.4965    0.4112   -1.0694 H   0  0  0  0  0  0  0  0  0  0  0  0
   -3.3578   -0.2847    0.3793 H   0  0  0  0  0  0  0  0  0  0  0  0
   -1.2096    0.2411   -1.5438 H   0  0  0  0  0  0  0  0  0  0  0  0
   -1.0105   -1.9967   -0.2182 H   0  0  0  0  0  0  0  0  0  0  0  0
   -0.9732   -1.0423    1.2577 H   0  0  0  0  0  0  0  0  0  0  0  0
    4.6426   -0.4213   -0.5791 H   0  0  0  0  0  0  0  0  0  0  0  0
   -0.3887    2.9206    0.4851 H   0  0  0  0  0  0  0  0  0  0  0  0
  1  2  1  0
  2  3  1  0
  3  4  1  0
  4  5  1  0
  5  6  1  0
  6  7  2  0
  7  8  1  0
  7  9  1  0
  9 10  1  0
  2 11  1  0
 11 12  2  0
 11 13  1  0
  9  4  2  0
  1 14  1  0
  1 15  1  0
  2 16  1  0
  3 17  1  0
  3 18  1  0
  8 19  1  0
 13 20  1  0
M  END
$$$$
