
     RDKit          3D

 23 23  0  0  0  0  0  0  0  0999 V2000
   -1.4142    1.3467   -0.7315 N   0  0  0  0  0  0  0  0  0  0  0  0
   -1.6588    0.0071   -0.1328 C   0  0  1  0  0  0  0  0  0  0  0  0
   -0.6611   -0.3002    0.9996 C   0  0  0  0  0  0  0  0  0  0  0  0
    0.7420   -0.2867    0.5567 N   0  0  0  0  0  0  0  0  0  0  0  0
    1.5423    0.8005    0.8568 C   0  0  0  0  0  0  0  0  0  0  0  0
    2.8219    0.8690    0.4775 C   0  0  0  0  0  0  0  0  0  0  0  0
    3.8125    2.2200    0.8445 Cl  0  0  0  0  0  0  0  0  0  0  0  0
    3.3950   -0.2629   -0.2923 C   0  0  0  0  0  0  0  0  0  0  0  0
    4.5542   -0.2869   -0.6923 O   0  0  0  0  0  0  0  0  0  0  0  0
    2.5333   -1.2986   -0.5441 N   0  0  0  0  0  0  0  0  0  0  0  0
    1.2158   -1.3681   -0.1748 C   0  0  0  0  0  0  0  0  0  0  0  0
    0.5245   -2.3303   -0.4979 O   0  0  0  0  0  0  0  0  0  0  0  0
   -3.0845   -0.0673    0.4155 C   0  0  0  0  0  0  0  0  0  0  0  0
   -3.4457   -0.5600    1.4717 O   0  0  0  0  0  0  0  0  0  0  0  0
   -3.9972    0.4545   -0.4390 O   0  0  0  0  0  0  0  0  0  0  0  0
   -0.5774    1.2910   -1.3108 H   0  0  0  0  0  0  0  0  0  0  0  0
   -2.1901    1.5370   -1.3725 H   0  0  0  0  0  0  0  0  0  0  0  0
   -1.5822   -0.7471   -0.9243 H   0  0  0  0  0  0  0  0  0  0  0  0
   -0.8682   -1.2991    1.4061 H   0  0  0  0  0  0  0  0  0  0  0  0
   -0.7880    0.4026    1.8337 H   0  0  0  0  0  0  0  0  0  0  0  0
    1.0793    1.6097    1.4156 H   0  0  0  0  0  0  0  0  0  0  0  0
    2.8968   -2.0751   -1.0750 H   0  0  0  0  0  0  0  0  0  0  0  0
   -4.8502    0.3441    0.0317 H   0  0  0  0  0  0  0  0  0  0  0  0
  1  2  1  0
  2  3  1  0
  3  4  1  0
  4  5  1  0
  5  6  2  0
  6  7  1  0
  6  8  1  0
  8  9  2  0
  8 10  1  0
 10 11  1  0
 11 12  2  0
  2 13  1  0
 13 14  2  0
 13 15  1  0
 11  4  1  0
  1 16  1  0
  1 17  1  0
  2 18  1  6
  3 19  1  0
  3 20  1  0
  5 21  1  0
 10 22  1  0
 15 23  1  0
M  END
$$$$
