
     RDKit          3D

 23 23  0  0  0  0  0  0  0  0999 V2000
    2.4145   -0.1846    1.7101 C   0  0  0  0  0  0  0  0  0  0  0  0
    1.9765    0.5555    0.5113 C   0  0  0  0  0  0  0  0  0  0  0  0
    2.6581    1.7048    0.2300 O   0  0  0  0  0  0  0  0  0  0  0  0
    2.1279    2.2851   -0.9185 N   0  0  0  0  0  0  0  0  0  0  0  0
    1.1580    1.4565   -1.2798 C   0  0  0  0  0  0  0  0  0  0  0  0
    0.4668    1.7881   -2.3705 O   0  0  0  0  0  0  0  0  0  0  0  0
    0.9965    0.3495   -0.4391 C   0  0  0  0  0  0  0  0  0  0  0  0
    0.0091   -0.7597   -0.5521 C   0  0  0  0  0  0  0  0  0  0  0  0
   -1.4240   -0.3359   -0.1930 C   0  0  2  0  0  0  0  0  0  0  0  0
   -1.5333    0.0593    1.2353 N   0  0  0  0  0  0  0  0  0  0  0  0
   -2.3970   -1.4825   -0.4886 C   0  0  0  0  0  0  0  0  0  0  0  0
   -2.1967   -2.4644   -1.1849 O   0  0  0  0  0  0  0  0  0  0  0  0
   -3.6131   -1.2912    0.0781 O   0  0  0  0  0  0  0  0  0  0  0  0
    2.8919    0.4837    2.4336 H   0  0  0  0  0  0  0  0  0  0  0  0
    1.5644   -0.6629    2.2060 H   0  0  0  0  0  0  0  0  0  0  0  0
    3.1336   -0.9616    1.4338 H   0  0  0  0  0  0  0  0  0  0  0  0
    0.8764    2.6079   -2.6985 H   0  0  0  0  0  0  0  0  0  0  0  0
    0.0346   -1.1362   -1.5837 H   0  0  0  0  0  0  0  0  0  0  0  0
    0.3193   -1.6044    0.0775 H   0  0  0  0  0  0  0  0  0  0  0  0
   -1.7386    0.5099   -0.8165 H   0  0  0  0  0  0  0  0  0  0  0  0
   -1.0806    0.9651    1.3578 H   0  0  0  0  0  0  0  0  0  0  0  0
   -2.5264    0.2075    1.4348 H   0  0  0  0  0  0  0  0  0  0  0  0
   -4.1182   -2.0894   -0.1833 H   0  0  0  0  0  0  0  0  0  0  0  0
  1  2  1  0
  2  3  1  0
  3  4  1  0
  4  5  2  0
  5  6  1  0
  5  7  1  0
  7  8  1  0
  8  9  1  0
  9 10  1  0
  9 11  1  0
 11 12  2  0
 11 13  1  0
  7  2  2  0
  1 14  1  0
  1 15  1  0
  1 16  1  0
  6 17  1  0
  8 18  1  0
  8 19  1  0
  9 20  1  6
 10 21  1  0
 10 22  1  0
 13 23  1  0
M  END
$$$$
