
     RDKit          3D

 23 23  0  0  0  0  0  0  0  0999 V2000
    1.2535    1.5110   -0.8108 N   0  0  0  0  0  0  0  0  0  0  0  0
    1.6203    0.3810    0.0843 C   0  0  1  0  0  0  0  0  0  0  0  0
    0.7504   -0.8616   -0.1830 C   0  0  0  0  0  0  0  0  0  0  0  0
   -0.6864   -0.6184    0.0175 N   0  0  0  0  0  0  0  0  0  0  0  0
   -1.5116   -0.4586   -1.0804 C   0  0  0  0  0  0  0  0  0  0  0  0
   -2.8179   -0.2347   -0.9435 C   0  0  0  0  0  0  0  0  0  0  0  0
   -3.6377   -0.0714   -1.9976 F   0  0  0  0  0  0  0  0  0  0  0  0
   -3.4093   -0.1514    0.4057 C   0  0  0  0  0  0  0  0  0  0  0  0
   -4.6009    0.0620    0.5963 O   0  0  0  0  0  0  0  0  0  0  0  0
   -2.5217   -0.3220    1.4368 N   0  0  0  0  0  0  0  0  0  0  0  0
   -1.1714   -0.5366    1.3191 C   0  0  0  0  0  0  0  0  0  0  0  0
   -0.4635   -0.6316    2.3183 O   0  0  0  0  0  0  0  0  0  0  0  0
    3.0934    0.0184   -0.1097 C   0  0  0  0  0  0  0  0  0  0  0  0
    3.5767   -1.0997   -0.1793 O   0  0  0  0  0  0  0  0  0  0  0  0
    3.8944    1.1099   -0.1602 O   0  0  0  0  0  0  0  0  0  0  0  0
    0.3668    1.8987   -0.4908 H   0  0  0  0  0  0  0  0  0  0  0  0
    1.9521    2.2467   -0.6703 H   0  0  0  0  0  0  0  0  0  0  0  0
    1.5075    0.7096    1.1237 H   0  0  0  0  0  0  0  0  0  0  0  0
    1.0462   -1.6673    0.5020 H   0  0  0  0  0  0  0  0  0  0  0  0
    0.9178   -1.2446   -1.1984 H   0  0  0  0  0  0  0  0  0  0  0  0
   -1.0597   -0.5154   -2.0658 H   0  0  0  0  0  0  0  0  0  0  0  0
   -2.8913   -0.2613    2.3729 H   0  0  0  0  0  0  0  0  0  0  0  0
    4.7922    0.7370   -0.2866 H   0  0  0  0  0  0  0  0  0  0  0  0
  1  2  1  0
  2  3  1  0
  3  4  1  0
  4  5  1  0
  5  6  2  0
  6  7  1  0
  6  8  1  0
  8  9  2  0
  8 10  1  0
 10 11  1  0
 11 12  2  0
  2 13  1  0
 13 14  2  0
 13 15  1  0
 11  4  1  0
  1 16  1  0
  1 17  1  0
  2 18  1  1
  3 19  1  0
  3 20  1  0
  5 21  1  0
 10 22  1  0
 15 23  1  0
M  END
$$$$
