
     RDKit          3D

 23 23  0  0  0  0  0  0  0  0999 V2000
   -2.5586    1.2309   -0.8495 C   0  0  0  0  0  0  0  0  0  0  0  0
   -2.1106    0.1437    0.0416 C   0  0  0  0  0  0  0  0  0  0  0  0
   -3.0423   -0.8060    0.3494 O   0  0  0  0  0  0  0  0  0  0  0  0
   -2.4697   -1.7579    1.1879 N   0  0  0  0  0  0  0  0  0  0  0  0
   -1.2240   -1.3347    1.3524 C   0  0  0  0  0  0  0  0  0  0  0  0
   -0.4368   -2.0855    2.1231 O   0  0  0  0  0  0  0  0  0  0  0  0
   -0.9171   -0.1527    0.6692 C   0  0  0  0  0  0  0  0  0  0  0  0
    0.3765    0.5846    0.6345 C   0  0  0  0  0  0  0  0  0  0  0  0
    1.4566   -0.1231   -0.1990 C   0  0  0  0  0  0  0  0  0  0  0  0
    1.0780   -0.1936   -1.6341 N   0  0  0  0  0  0  0  0  0  0  0  0
    2.7938    0.6110   -0.0520 C   0  0  0  0  0  0  0  0  0  0  0  0
    3.1043    1.4225    0.8048 O   0  0  0  0  0  0  0  0  0  0  0  0
    3.7020    0.2277   -0.9820 O   0  0  0  0  0  0  0  0  0  0  0  0
   -1.7465    1.5571   -1.5062 H   0  0  0  0  0  0  0  0  0  0  0  0
   -2.8913    2.0906   -0.2602 H   0  0  0  0  0  0  0  0  0  0  0  0
   -3.3906    0.9050   -1.4816 H   0  0  0  0  0  0  0  0  0  0  0  0
   -1.0005   -2.8134    2.4394 H   0  0  0  0  0  0  0  0  0  0  0  0
    0.2182    1.6033    0.2558 H   0  0  0  0  0  0  0  0  0  0  0  0
    0.7286    0.7058    1.6678 H   0  0  0  0  0  0  0  0  0  0  0  0
    1.6171   -1.1427    0.1724 H   0  0  0  0  0  0  0  0  0  0  0  0
    0.3369   -0.8862   -1.7415 H   0  0  0  0  0  0  0  0  0  0  0  0
    1.8865   -0.5597   -2.1444 H   0  0  0  0  0  0  0  0  0  0  0  0
    4.4894    0.7735   -0.7751 H   0  0  0  0  0  0  0  0  0  0  0  0
  1  2  1  0
  2  3  1  0
  3  4  1  0
  4  5  2  0
  5  6  1  0
  5  7  1  0
  7  8  1  0
  8  9  1  0
  9 10  1  0
  9 11  1  0
 11 12  2  0
 11 13  1  0
  7  2  2  0
  1 14  1  0
  1 15  1  0
  1 16  1  0
  6 17  1  0
  8 18  1  0
  8 19  1  0
  9 20  1  0
 10 21  1  0
 10 22  1  0
 13 23  1  0
M  END
$$$$
