
     RDKit          3D

 22 22  0  0  0  0  0  0  0  0999 V2000
   -1.4832    0.3641    1.1900 N   0  0  0  0  0  0  0  0  0  0  0  0
   -1.3104    0.8469   -0.2098 C   0  0  1  0  0  0  0  0  0  0  0  0
   -0.4420   -0.0837   -1.0761 C   0  0  0  0  0  0  0  0  0  0  0  0
    0.8528   -0.3804   -0.4636 N   0  0  0  0  0  0  0  0  0  0  0  0
    1.8468    0.5539   -0.6734 N   0  0  0  0  0  0  0  0  0  0  0  0
    2.9678    0.3994   -0.0385 C   0  0  0  0  0  0  0  0  0  0  0  0
    4.4489    1.8221   -0.3813 I   0  0  0  0  0  0  0  0  0  0  0  0
    3.2055   -0.7533    0.9074 C   0  0  0  0  0  0  0  0  0  0  0  0
    4.2302   -0.8471    1.5653 O   0  0  0  0  0  0  0  0  0  0  0  0
    2.1871   -1.6580    0.9686 N   0  0  0  0  0  0  0  0  0  0  0  0
    0.9714   -1.4849    0.3753 C   0  0  0  0  0  0  0  0  0  0  0  0
    0.0631   -2.2846    0.5979 O   0  0  0  0  0  0  0  0  0  0  0  0
   -2.6672    1.0143   -0.8986 C   0  0  0  0  0  0  0  0  0  0  0  0
   -2.8804    1.0212   -2.1001 O   0  0  0  0  0  0  0  0  0  0  0  0
   -3.6878    1.2067   -0.0303 O   0  0  0  0  0  0  0  0  0  0  0  0
   -2.3242    0.8157    1.5631 H   0  0  0  0  0  0  0  0  0  0  0  0
   -1.7019   -0.6357    1.1700 H   0  0  0  0  0  0  0  0  0  0  0  0
   -0.8523    1.8410   -0.1552 H   0  0  0  0  0  0  0  0  0  0  0  0
   -0.2538    0.3712   -2.0569 H   0  0  0  0  0  0  0  0  0  0  0  0
   -0.9699   -1.0272   -1.2647 H   0  0  0  0  0  0  0  0  0  0  0  0
    2.2725   -2.4237    1.6177 H   0  0  0  0  0  0  0  0  0  0  0  0
   -4.4730    1.3220   -0.6069 H   0  0  0  0  0  0  0  0  0  0  0  0
  1  2  1  0
  2  3  1  0
  3  4  1  0
  4  5  1  0
  5  6  2  0
  6  7  1  0
  6  8  1  0
  8  9  2  0
  8 10  1  0
 10 11  1  0
 11 12  2  0
  2 13  1  0
 13 14  2  0
 13 15  1  0
 11  4  1  0
  1 16  1  0
  1 17  1  0
  2 18  1  1
  3 19  1  0
  3 20  1  0
 10 21  1  0
 15 22  1  0
M  END
$$$$
