
     RDKit          3D

 21 22  0  0  0  0  0  0  0  0999 V2000
    2.0704    1.7359   -1.1814 O   0  0  0  0  0  0  0  0  0  0  0  0
    2.1355    0.7750   -0.4321 C   0  0  0  0  0  0  0  0  0  0  0  0
    3.1941   -0.0711   -0.5376 O   0  0  0  0  0  0  0  0  0  0  0  0
    1.1820    0.3893    0.7115 C   0  0  0  0  0  0  0  0  0  0  0  0
    1.1415   -1.1076    0.8958 N   0  0  0  0  0  0  0  0  0  0  0  0
    0.2534   -1.7765   -0.0887 C   0  0  0  0  0  0  0  0  0  0  0  0
   -1.2319   -1.3213   -0.0117 C   0  0  0  0  0  0  0  0  0  0  0  0
   -1.2911    0.1495    0.1030 C   0  0  0  0  0  0  0  0  0  0  0  0
   -2.2781    1.1164   -0.0251 C   0  0  0  0  0  0  0  0  0  0  0  0
   -3.5654    0.9746   -0.3377 O   0  0  0  0  0  0  0  0  0  0  0  0
   -1.8532    2.3565    0.2114 N   0  0  0  0  0  0  0  0  0  0  0  0
   -0.4927    2.2063    0.5180 O   0  0  0  0  0  0  0  0  0  0  0  0
   -0.1844    0.8881    0.4397 C   0  0  0  0  0  0  0  0  0  0  0  0
    3.7192    0.3147   -1.2718 H   0  0  0  0  0  0  0  0  0  0  0  0
    1.5778    0.8340    1.6307 H   0  0  0  0  0  0  0  0  0  0  0  0
    2.1000   -1.4403    0.7544 H   0  0  0  0  0  0  0  0  0  0  0  0
    0.2976   -2.8584    0.0791 H   0  0  0  0  0  0  0  0  0  0  0  0
    0.6392   -1.6001   -1.1012 H   0  0  0  0  0  0  0  0  0  0  0  0
   -1.7058   -1.7712    0.8688 H   0  0  0  0  0  0  0  0  0  0  0  0
   -1.7709   -1.6675   -0.8999 H   0  0  0  0  0  0  0  0  0  0  0  0
   -3.9369    1.8736   -0.3252 H   0  0  0  0  0  0  0  0  0  0  0  0
  1  2  2  0
  2  3  1  0
  2  4  1  0
  4  5  1  0
  5  6  1  0
  6  7  1  0
  7  8  1  0
  8  9  1  0
  9 10  1  0
  9 11  2  0
 11 12  1  0
 12 13  1  0
 13  4  1  0
 13  8  2  0
  3 14  1  0
  4 15  1  0
  5 16  1  0
  6 17  1  0
  6 18  1  0
  7 19  1  0
  7 20  1  0
 10 21  1  0
M  END
$$$$
