
     RDKit          3D

 31 33  0  0  0  0  0  0  0  0999 V2000
   -4.3478    0.6324   -0.0699 N   0  0  0  0  0  0  0  0  0  0  0  0
   -3.5384   -0.7293   -0.5909 S   0  0  0  0  0  0  0  0  0  0  0  0
   -4.3448   -1.8515   -0.1674 O   0  0  0  0  0  0  0  0  0  0  0  0
   -3.1782   -0.5544   -1.9747 O   0  0  0  0  0  0  0  0  0  0  0  0
   -2.0473   -0.6802    0.3983 C   0  0  0  0  0  0  0  0  0  0  0  0
   -2.1372   -1.4356    1.5819 C   0  0  0  0  0  0  0  0  0  0  0  0
   -1.0075   -1.6979    2.3261 C   0  0  0  0  0  0  0  0  0  0  0  0
    0.2201   -1.2451    1.8657 C   0  0  0  0  0  0  0  0  0  0  0  0
    0.3662   -0.4725    0.6912 C   0  0  0  0  0  0  0  0  0  0  0  0
   -0.7939   -0.0985   -0.0623 C   0  0  0  0  0  0  0  0  0  0  0  0
   -0.5064    0.7962   -1.1546 C   0  0  0  0  0  0  0  0  0  0  0  0
   -1.5316    1.5811   -1.8370 N   0  0  0  0  0  0  0  0  0  0  0  0
   -1.4659    1.6583   -3.0709 O   0  0  0  0  0  0  0  0  0  0  0  0
   -2.3373    2.1945   -1.1238 O   0  0  0  0  0  0  0  0  0  0  0  0
    0.7973    1.1555   -1.5324 C   0  0  0  0  0  0  0  0  0  0  0  0
    1.8850    0.7066   -0.8300 C   0  0  0  0  0  0  0  0  0  0  0  0
    3.1020    1.0970   -1.2552 N   0  0  0  0  0  0  0  0  0  0  0  0
    4.1408    0.6674   -0.5236 C   0  0  0  0  0  0  0  0  0  0  0  0
    5.3480    1.0747   -0.9831 O   0  0  0  0  0  0  0  0  0  0  0  0
    3.9772   -0.1168    0.5971 C   0  0  0  0  0  0  0  0  0  0  0  0
    5.0084   -0.5612    1.3549 O   0  0  0  0  0  0  0  0  0  0  0  0
    2.7671   -0.5085    1.0334 N   0  0  0  0  0  0  0  0  0  0  0  0
    1.6845   -0.1019    0.3165 C   0  0  0  0  0  0  0  0  0  0  0  0
   -4.3035    1.3896   -0.7578 H   0  0  0  0  0  0  0  0  0  0  0  0
   -5.2838    0.4078    0.2651 H   0  0  0  0  0  0  0  0  0  0  0  0
   -3.0870   -1.8547    1.9123 H   0  0  0  0  0  0  0  0  0  0  0  0
   -1.0693   -2.2895    3.2363 H   0  0  0  0  0  0  0  0  0  0  0  0
    1.0974   -1.5119    2.4584 H   0  0  0  0  0  0  0  0  0  0  0  0
    0.9670    1.8316   -2.3709 H   0  0  0  0  0  0  0  0  0  0  0  0
    5.0847    1.5878   -1.7663 H   0  0  0  0  0  0  0  0  0  0  0  0
    4.5342   -1.0710    2.0336 H   0  0  0  0  0  0  0  0  0  0  0  0
  1  2  1  0
  2  3  2  0
  2  4  2  0
  2  5  1  0
  5  6  2  0
  6  7  1  0
  7  8  2  0
  8  9  1  0
  9 10  1  0
 10 11  2  0
 11 12  1  0
 12 13  2  0
 12 14  1  0
 11 15  1  0
 15 16  2  0
 16 17  1  0
 17 18  2  0
 18 19  1  0
 18 20  1  0
 20 21  1  0
 20 22  2  0
 22 23  1  0
 10  5  1  0
 23 16  1  0
 23  9  2  0
  1 24  1  0
  1 25  1  0
  6 26  1  0
  7 27  1  0
  8 28  1  0
 15 29  1  0
 19 30  1  0
 21 31  1  0
M  CHG  2  12   1  14  -1
M  END
$$$$
