
     RDKit          3D

 19 18  0  0  0  0  0  0  0  0999 V2000
   -0.7462    1.4623    0.5829 N   0  0  0  0  0  0  0  0  0  0  0  0
   -0.7779    0.2771   -0.3084 C   0  0  1  0  0  0  0  0  0  0  0  0
    0.0570   -0.8644    0.2898 C   0  0  0  0  0  0  0  0  0  0  0  0
    1.5255   -0.5107    0.5381 C   0  0  0  0  0  0  0  0  0  0  0  0
    2.2800   -0.2424   -0.7349 C   0  0  0  0  0  0  0  0  0  0  0  0
    1.8976   -0.4337   -1.8767 O   0  0  0  0  0  0  0  0  0  0  0  0
    3.5192    0.2303   -0.4977 O   0  0  0  0  0  0  0  0  0  0  0  0
   -2.2264   -0.1855   -0.5408 C   0  0  0  0  0  0  0  0  0  0  0  0
   -2.6046   -1.3109   -0.8215 O   0  0  0  0  0  0  0  0  0  0  0  0
   -3.1260    0.8214   -0.4377 O   0  0  0  0  0  0  0  0  0  0  0  0
   -1.4058    2.1425    0.1913 H   0  0  0  0  0  0  0  0  0  0  0  0
   -1.1599    1.2062    1.4805 H   0  0  0  0  0  0  0  0  0  0  0  0
   -0.3892    0.5763   -1.2868 H   0  0  0  0  0  0  0  0  0  0  0  0
    0.0056   -1.7358   -0.3763 H   0  0  0  0  0  0  0  0  0  0  0  0
   -0.3899   -1.1857    1.2403 H   0  0  0  0  0  0  0  0  0  0  0  0
    1.6082    0.3636    1.1918 H   0  0  0  0  0  0  0  0  0  0  0  0
    2.0133   -1.3565    1.0359 H   0  0  0  0  0  0  0  0  0  0  0  0
    3.9007    0.3592   -1.3910 H   0  0  0  0  0  0  0  0  0  0  0  0
   -3.9811    0.3868   -0.6419 H   0  0  0  0  0  0  0  0  0  0  0  0
  1  2  1  0
  2  3  1  0
  3  4  1  0
  4  5  1  0
  5  6  2  0
  5  7  1  0
  2  8  1  0
  8  9  2  0
  8 10  1  0
  1 11  1  0
  1 12  1  0
  2 13  1  6
  3 14  1  0
  3 15  1  0
  4 16  1  0
  4 17  1  0
  7 18  1  0
 10 19  1  0
M  END
$$$$
