
     RDKit          3D

 25 25  0  0  0  0  0  0  0  0999 V2000
   -1.7154    1.3777    0.3890 N   0  0  0  0  0  0  0  0  0  0  0  0
   -1.9030    0.0933   -0.3476 C   0  0  1  0  0  0  0  0  0  0  0  0
   -0.8847   -0.9751    0.0973 C   0  0  0  0  0  0  0  0  0  0  0  0
    0.5075   -0.5807   -0.1662 N   0  0  0  0  0  0  0  0  0  0  0  0
    1.2683   -0.0252    0.8507 C   0  0  0  0  0  0  0  0  0  0  0  0
    2.5213    0.3840    0.6263 C   0  0  0  0  0  0  0  0  0  0  0  0
    3.2594    0.9617    1.7089 N   0  0  0  0  0  0  0  0  0  0  0  0
    3.1858    0.3965    2.8102 O   0  0  0  0  0  0  0  0  0  0  0  0
    3.8770    2.0093    1.4873 O   0  0  0  0  0  0  0  0  0  0  0  0
    3.1335    0.2202   -0.6944 C   0  0  0  0  0  0  0  0  0  0  0  0
    4.3148    0.4259   -0.9430 O   0  0  0  0  0  0  0  0  0  0  0  0
    2.2738   -0.2449   -1.6634 N   0  0  0  0  0  0  0  0  0  0  0  0
    0.9856   -0.6839   -1.4710 C   0  0  0  0  0  0  0  0  0  0  0  0
    0.3314   -1.1342   -2.4069 O   0  0  0  0  0  0  0  0  0  0  0  0
   -3.3232   -0.4402   -0.1429 C   0  0  0  0  0  0  0  0  0  0  0  0
   -3.6682   -1.6083   -0.0845 O   0  0  0  0  0  0  0  0  0  0  0  0
   -4.2450    0.5456   -0.0430 O   0  0  0  0  0  0  0  0  0  0  0  0
   -1.9621    1.2319    1.3691 H   0  0  0  0  0  0  0  0  0  0  0  0
   -2.4404    2.0177    0.0471 H   0  0  0  0  0  0  0  0  0  0  0  0
   -1.7879    0.3004   -1.4174 H   0  0  0  0  0  0  0  0  0  0  0  0
   -1.0016   -1.2095    1.1636 H   0  0  0  0  0  0  0  0  0  0  0  0
   -1.0727   -1.9110   -0.4448 H   0  0  0  0  0  0  0  0  0  0  0  0
    0.7904    0.0735    1.8223 H   0  0  0  0  0  0  0  0  0  0  0  0
    2.6541   -0.3695   -2.5903 H   0  0  0  0  0  0  0  0  0  0  0  0
   -5.0987    0.0693    0.0436 H   0  0  0  0  0  0  0  0  0  0  0  0
  1  2  1  0
  2  3  1  0
  3  4  1  0
  4  5  1  0
  5  6  2  0
  6  7  1  0
  7  8  2  0
  7  9  1  0
  6 10  1  0
 10 11  2  0
 10 12  1  0
 12 13  1  0
 13 14  2  0
  2 15  1  0
 15 16  2  0
 15 17  1  0
 13  4  1  0
  1 18  1  0
  1 19  1  0
  2 20  1  6
  3 21  1  0
  3 22  1  0
  5 23  1  0
 12 24  1  0
 17 25  1  0
M  CHG  2   7   1   9  -1
M  END
$$$$
