
     RDKit          3D

 25 25  0  0  0  0  0  0  0  0999 V2000
   -3.5777   -1.0054   -0.7892 C   0  0  0  0  0  0  0  0  0  0  0  0
   -2.4627   -0.2283   -0.1560 C   0  0  0  0  0  0  0  0  0  0  0  0
   -1.3247   -0.0879   -0.7639 N   0  0  0  0  0  0  0  0  0  0  0  0
   -0.3418    0.6374   -0.1253 N   0  0  0  0  0  0  0  0  0  0  0  0
    0.9613    0.6685   -0.7877 C   0  0  0  0  0  0  0  0  0  0  0  0
    1.8404   -0.5451   -0.4339 C   0  0  2  0  0  0  0  0  0  0  0  0
    2.0122   -0.7502    1.0327 N   0  0  0  0  0  0  0  0  0  0  0  0
    3.1977   -0.3657   -1.1194 C   0  0  0  0  0  0  0  0  0  0  0  0
    3.4073    0.1643   -2.1985 O   0  0  0  0  0  0  0  0  0  0  0  0
    4.2256   -0.9046   -0.4220 O   0  0  0  0  0  0  0  0  0  0  0  0
   -0.4804    1.2232    1.1293 C   0  0  0  0  0  0  0  0  0  0  0  0
    0.4173    1.8350    1.7087 O   0  0  0  0  0  0  0  0  0  0  0  0
   -1.7024    1.0961    1.7197 N   0  0  0  0  0  0  0  0  0  0  0  0
   -2.7292    0.3679    1.2043 C   0  0  0  0  0  0  0  0  0  0  0  0
   -3.7965    0.1859    1.7691 O   0  0  0  0  0  0  0  0  0  0  0  0
   -3.8378   -1.8565   -0.1541 H   0  0  0  0  0  0  0  0  0  0  0  0
   -4.4521   -0.3602   -0.9096 H   0  0  0  0  0  0  0  0  0  0  0  0
   -3.2737   -1.3768   -1.7719 H   0  0  0  0  0  0  0  0  0  0  0  0
    0.7874    0.7128   -1.8703 H   0  0  0  0  0  0  0  0  0  0  0  0
    1.4752    1.5995   -0.5158 H   0  0  0  0  0  0  0  0  0  0  0  0
    1.3945   -1.4607   -0.8386 H   0  0  0  0  0  0  0  0  0  0  0  0
    2.1857    0.1563    1.4753 H   0  0  0  0  0  0  0  0  0  0  0  0
    2.8755   -1.2862    1.1643 H   0  0  0  0  0  0  0  0  0  0  0  0
    5.0097   -0.7369   -0.9868 H   0  0  0  0  0  0  0  0  0  0  0  0
   -1.8109    1.4905    2.6396 H   0  0  0  0  0  0  0  0  0  0  0  0
  1  2  1  0
  2  3  2  0
  3  4  1  0
  4  5  1  0
  5  6  1  0
  6  7  1  0
  6  8  1  0
  8  9  2  0
  8 10  1  0
  4 11  1  0
 11 12  2  0
 11 13  1  0
 13 14  1  0
 14 15  2  0
 14  2  1  0
  1 16  1  0
  1 17  1  0
  1 18  1  0
  5 19  1  0
  5 20  1  0
  6 21  1  6
  7 22  1  0
  7 23  1  0
 10 24  1  0
 13 25  1  0
M  END
$$$$
