
     RDKit          3D

 23 23  0  0  0  0  0  0  0  0999 V2000
   -1.3342   -0.4010    1.6100 N   0  0  0  0  0  0  0  0  0  0  0  0
   -1.6327    0.1296    0.2525 C   0  0  1  0  0  0  0  0  0  0  0  0
   -0.6842   -0.4565   -0.8099 C   0  0  0  0  0  0  0  0  0  0  0  0
    0.7313   -0.1508   -0.5525 N   0  0  0  0  0  0  0  0  0  0  0  0
    1.5565   -1.1267   -0.0325 C   0  0  0  0  0  0  0  0  0  0  0  0
    2.8457   -0.8955    0.2227 C   0  0  0  0  0  0  0  0  0  0  0  0
    3.3975    0.4391   -0.0596 C   0  0  0  0  0  0  0  0  0  0  0  0
    4.5725    0.6987    0.1696 O   0  0  0  0  0  0  0  0  0  0  0  0
    2.5207    1.3482   -0.5752 N   0  0  0  0  0  0  0  0  0  0  0  0
    1.1916    1.1315   -0.8251 C   0  0  0  0  0  0  0  0  0  0  0  0
    0.4782    2.0381   -1.2488 O   0  0  0  0  0  0  0  0  0  0  0  0
   -3.0791   -0.1907   -0.1255 C   0  0  0  0  0  0  0  0  0  0  0  0
   -3.4901   -0.6064   -1.1965 O   0  0  0  0  0  0  0  0  0  0  0  0
   -3.9495    0.0789    0.8774 O   0  0  0  0  0  0  0  0  0  0  0  0
   -2.0552   -0.0404    2.2409 H   0  0  0  0  0  0  0  0  0  0  0  0
   -0.4525    0.0050    1.9220 H   0  0  0  0  0  0  0  0  0  0  0  0
   -1.5446    1.2217    0.2791 H   0  0  0  0  0  0  0  0  0  0  0  0
   -0.9375   -0.0404   -1.7941 H   0  0  0  0  0  0  0  0  0  0  0  0
   -0.8148   -1.5436   -0.8935 H   0  0  0  0  0  0  0  0  0  0  0  0
    1.1130   -2.0982    0.1691 H   0  0  0  0  0  0  0  0  0  0  0  0
    3.5139   -1.6408    0.6321 H   0  0  0  0  0  0  0  0  0  0  0  0
    2.8742    2.2721   -0.7669 H   0  0  0  0  0  0  0  0  0  0  0  0
   -4.8208   -0.1718    0.5048 H   0  0  0  0  0  0  0  0  0  0  0  0
  1  2  1  0
  2  3  1  0
  3  4  1  0
  4  5  1  0
  5  6  2  0
  6  7  1  0
  7  8  2  0
  7  9  1  0
  9 10  1  0
 10 11  2  0
  2 12  1  0
 12 13  2  0
 12 14  1  0
 10  4  1  0
  1 15  1  0
  1 16  1  0
  2 17  1  1
  3 18  1  0
  3 19  1  0
  5 20  1  0
  6 21  1  0
  9 22  1  0
 14 23  1  0
M  END
$$$$
