
     RDKit          3D

 22 22  0  0  0  0  0  0  0  0999 V2000
   -1.4516    0.3797    1.2193 N   0  0  0  0  0  0  0  0  0  0  0  0
   -1.3221    0.8330   -0.1950 C   0  0  1  0  0  0  0  0  0  0  0  0
   -0.4641   -0.1060   -1.0628 C   0  0  0  0  0  0  0  0  0  0  0  0
    0.8497   -0.3731   -0.4774 N   0  0  0  0  0  0  0  0  0  0  0  0
    1.8265    0.5687   -0.7339 N   0  0  0  0  0  0  0  0  0  0  0  0
    2.9663    0.4377   -0.1284 C   0  0  0  0  0  0  0  0  0  0  0  0
    4.3063    1.7411   -0.4943 Br  0  0  0  0  0  0  0  0  0  0  0  0
    3.2456   -0.6932    0.8308 C   0  0  0  0  0  0  0  0  0  0  0  0
    4.2981   -0.7659    1.4463 O   0  0  0  0  0  0  0  0  0  0  0  0
    2.2351   -1.6007    0.9512 N   0  0  0  0  0  0  0  0  0  0  0  0
    1.0033   -1.4569    0.3833 C   0  0  0  0  0  0  0  0  0  0  0  0
    0.1118   -2.2637    0.6446 O   0  0  0  0  0  0  0  0  0  0  0  0
   -2.6985    0.9675   -0.8511 C   0  0  0  0  0  0  0  0  0  0  0  0
   -2.9434    0.9425   -2.0463 O   0  0  0  0  0  0  0  0  0  0  0  0
   -3.6980    1.1693    0.0393 O   0  0  0  0  0  0  0  0  0  0  0  0
   -2.2862    0.8322    1.6056 H   0  0  0  0  0  0  0  0  0  0  0  0
   -1.6621   -0.6221    1.2272 H   0  0  0  0  0  0  0  0  0  0  0  0
   -0.8758    1.8337   -0.1747 H   0  0  0  0  0  0  0  0  0  0  0  0
   -0.3069    0.3292   -2.0579 H   0  0  0  0  0  0  0  0  0  0  0  0
   -0.9844   -1.0599   -1.2169 H   0  0  0  0  0  0  0  0  0  0  0  0
    2.3498   -2.3546    1.6096 H   0  0  0  0  0  0  0  0  0  0  0  0
   -4.4995    1.2615   -0.5186 H   0  0  0  0  0  0  0  0  0  0  0  0
  1  2  1  0
  2  3  1  0
  3  4  1  0
  4  5  1  0
  5  6  2  0
  6  7  1  0
  6  8  1  0
  8  9  2  0
  8 10  1  0
 10 11  1  0
 11 12  2  0
  2 13  1  0
 13 14  2  0
 13 15  1  0
 11  4  1  0
  1 16  1  0
  1 17  1  0
  2 18  1  1
  3 19  1  0
  3 20  1  0
 10 21  1  0
 15 22  1  0
M  END
$$$$
