
     RDKit          3D

 66 68  0  0  0  0  0  0  0  0999 V2000
   -3.0800  -11.7290   15.7730 C   0  0  0  0  0  0  0  0  0  0  0  0
   -1.6030  -10.4210   14.7720 C   0  0  0  0  0  0  0  0  0  0  0  0
    0.0440   -8.8630   13.8080 C   0  0  0  0  0  0  0  0  0  0  0  0
    1.6100   -5.2050   13.6960 O   0  0  0  0  0  0  0  0  0  0  0  0
   -4.2730  -11.6290   18.7320 C   0  0  0  0  0  0  0  0  0  0  0  0
   -4.6390  -11.5270   20.0560 C   0  0  0  0  0  0  0  0  0  0  0  0
   -2.9160  -10.0900   20.5290 C   0  0  0  0  0  0  0  0  0  0  0  0
   -2.4780  -10.1140   19.1970 C   0  0  0  0  0  0  0  0  0  0  0  0
   -2.1400   -9.3030   21.6130 C   0  0  1  0  0  0  0  0  0  0  0  0
   -1.0640   -8.4030   20.9840 C   0  0  0  0  0  0  0  0  0  0  0  0
   -3.1110   -8.4460   22.4440 C   0  0  0  0  0  0  0  0  0  0  0  0
   -1.3810  -10.3370   22.6220 C   0  0  1  0  0  0  0  0  0  0  0  0
   -0.6820   -9.6680   23.5380 F   0  0  0  0  0  0  0  0  0  0  0  0
   -2.2190  -11.1320   23.2770 F   0  0  0  0  0  0  0  0  0  0  0  0
   -0.5360  -11.1320   21.9750 F   0  0  0  0  0  0  0  0  0  0  0  0
   -3.9910  -10.7690   20.9520 N   0  0  0  0  0  0  0  0  0  0  0  0
   -3.1840  -10.8900   18.2830 C   0  0  0  0  0  0  0  0  0  0  0  0
   -2.7500  -10.9380   16.8690 C   0  0  0  0  0  0  0  0  0  0  0  0
   -4.0520  -12.8640   15.7720 C   0  0  0  0  0  0  0  0  0  0  0  0
   -1.5770   -9.7460   16.3620 S   0  0  0  0  0  0  0  0  0  0  0  0
   -2.4190  -11.4290   14.5990 N   0  0  0  0  0  0  0  0  0  0  0  0
   -0.8290   -9.9580   13.7250 N   0  0  0  0  0  0  0  0  0  0  0  0
    0.1900   -8.2350   14.8460 O   0  0  0  0  0  0  0  0  0  0  0  0
    0.7390   -8.5170   12.6650 N   0  0  0  0  0  0  0  0  0  0  0  0
    1.6800   -7.3850   12.6910 C   0  0  2  0  0  0  0  0  0  0  0  0
    1.0160   -6.0450   13.0140 C   0  0  2  0  0  0  0  0  0  0  0  0
   -0.2270   -5.8810   12.5910 N   0  0  0  0  0  0  0  0  0  0  0  0
    2.3070   -7.3990   11.2880 C   0  0  0  0  0  0  0  0  0  0  0  0
    1.3280   -8.1590   10.4240 C   0  0  0  0  0  0  0  0  0  0  0  0
    0.6760   -9.1660   11.3460 C   0  0  0  0  0  0  0  0  0  0  0  0
   -2.2678  -12.4247   16.0306 H   0  0  0  0  0  0  0  0  0  0  0  0
   -0.8011  -11.1187   15.0551 H   0  0  0  0  0  0  0  0  0  0  0  0
   -0.7741   -8.1886   13.5150 H   0  0  0  0  0  0  0  0  0  0  0  0
    1.4710   -5.4015   14.6563 H   0  0  0  0  0  0  0  0  0  0  0  0
   -4.0478  -12.6882   18.5387 H   0  0  0  0  0  0  0  0  0  0  0  0
   -5.1280  -11.2058   18.1844 H   0  0  0  0  0  0  0  0  0  0  0  0
   -5.6775  -11.1643   20.0524 H   0  0  0  0  0  0  0  0  0  0  0  0
   -4.3992  -12.5369   20.4203 H   0  0  0  0  0  0  0  0  0  0  0  0
   -2.3108  -10.9830   20.7441 H   0  0  0  0  0  0  0  0  0  0  0  0
   -2.4991   -9.0777   18.8288 H   0  0  0  0  0  0  0  0  0  0  0  0
   -1.4868  -10.5884   19.2464 H   0  0  0  0  0  0  0  0  0  0  0  0
   -0.4819   -7.9161   21.7803 H   0  0  0  0  0  0  0  0  0  0  0  0
   -0.3939   -9.0134   20.3608 H   0  0  0  0  0  0  0  0  0  0  0  0
   -1.5463   -7.6355   20.3608 H   0  0  0  0  0  0  0  0  0  0  0  0
   -2.9225   -8.6124   23.5149 H   0  0  0  0  0  0  0  0  0  0  0  0
   -2.9580   -7.3831   22.2056 H   0  0  0  0  0  0  0  0  0  0  0  0
   -4.1467   -8.7299   22.2056 H   0  0  0  0  0  0  0  0  0  0  0  0
   -4.6648  -10.0817   21.3188 H   0  0  0  0  0  0  0  0  0  0  0  0
   -3.8482  -10.0386   18.0732 H   0  0  0  0  0  0  0  0  0  0  0  0
   -3.5491  -10.2316   16.5998 H   0  0  0  0  0  0  0  0  0  0  0  0
   -4.2910  -13.1430   16.8088 H   0  0  0  0  0  0  0  0  0  0  0  0
   -4.9725  -12.5580   15.2532 H   0  0  0  0  0  0  0  0  0  0  0  0
   -3.6081  -13.7264   15.2532 H   0  0  0  0  0  0  0  0  0  0  0  0
   -1.8797  -12.2521   14.2948 H   0  0  0  0  0  0  0  0  0  0  0  0
   -1.4918   -9.7277   12.9710 H   0  0  0  0  0  0  0  0  0  0  0  0
    0.0499   -8.8377   15.6188 H   0  0  0  0  0  0  0  0  0  0  0  0
    2.4230   -7.4943   13.4947 H   0  0  0  0  0  0  0  0  0  0  0  0
    0.5827   -6.4797   13.9268 H   0  0  0  0  0  0  0  0  0  0  0  0
   -0.8573   -5.7978   13.4014 H   0  0  0  0  0  0  0  0  0  0  0  0
   -0.2856   -5.0250   12.0212 H   0  0  0  0  0  0  0  0  0  0  0  0
    2.4365   -6.3730   10.9132 H   0  0  0  0  0  0  0  0  0  0  0  0
    3.3034   -7.8650   11.2877 H   0  0  0  0  0  0  0  0  0  0  0  0
    0.5741   -7.4764   10.0048 H   0  0  0  0  0  0  0  0  0  0  0  0
    1.8261   -8.6462    9.5728 H   0  0  0  0  0  0  0  0  0  0  0  0
   -0.3666   -9.3529   11.0494 H   0  0  0  0  0  0  0  0  0  0  0  0
    1.1727  -10.1473   11.3277 H   0  0  0  0  0  0  0  0  0  0  0  0
  6  5  1  0
  8  7  1  0
  9  7  1  0
  9 10  1  6
 11  9  1  0
 12  9  1  0
 12 13  1  1
 14 12  1  0
 15 12  1  0
 16  6  1  0
 16  7  1  0
 17  5  1  0
 17  8  1  0
 18  1  1  0
 18 17  1  0
 19  1  1  0
 20 18  1  0
 20  2  1  0
 21  1  1  0
 21  2  1  0
 22  3  1  0
 22  2  1  0
 23  3  1  0
 24  3  1  0
 25 24  1  0
 26 25  1  0
 26  4  1  0
 27 26  1  0
 28 25  1  0
 29 28  1  0
 30 29  1  0
 30 24  1  0
  1 31  1  0
  2 32  1  0
  3 33  1  0
  4 34  1  0
  5 35  1  0
  5 36  1  0
  6 37  1  0
  6 38  1  0
  7 39  1  0
  8 40  1  0
  8 41  1  0
 10 42  1  0
 10 43  1  0
 10 44  1  0
 11 45  1  0
 11 46  1  0
 11 47  1  0
 16 48  1  0
 17 49  1  0
 18 50  1  0
 19 51  1  0
 19 52  1  0
 19 53  1  0
 21 54  1  0
 22 55  1  0
 23 56  1  0
 25 57  1  1
 26 58  1  6
 27 59  1  0
 27 60  1  0
 28 61  1  0
 28 62  1  0
 29 63  1  0
 29 64  1  0
 30 65  1  0
 30 66  1  0
M  END
$$$$
