outputs/docking_campaign/systems/CACNA1D_isradipine/prepared/amiodarone_3PE_A2203_crystal.pdb
 OpenBabel08242623043D

  4  3  0  0  0  0  0  0  0  0999 V2000
  135.8490  150.5530  173.0720 P   0  0  0  0  0  0  0  0  0  0  0  0
  137.2290  150.5530  173.0720 H   0  0  0  0  0  0  0  0  0  0  0  0
  135.3890  151.7531  172.5694 H   0  0  0  0  0  0  0  0  0  0  0  0
  135.3890  150.3882  174.3626 H   0  0  0  0  0  0  0  0  0  0  0  0
  1  2  1  0  0  0  0
  1  3  1  0  0  0  0
  1  4  1  0  0  0  0
M  END
$$$$
