isradipine
     RDKit          3D

 48 50  0  0  0  0  0  0  0  0999 V2000
    3.2583   -2.7467   -1.2566 C   0  0  0  0  0  0  0  0  0  0  0  0
    2.0445   -2.0505   -0.6946 C   0  0  0  0  0  0  0  0  0  0  0  0
    2.0855   -1.0057    0.1637 C   0  0  0  0  0  0  0  0  0  0  0  0
    0.8068   -0.3626    0.6922 C   0  0  0  0  0  0  0  0  0  0  0  0
   -0.4588   -1.0643    0.2149 C   0  0  0  0  0  0  0  0  0  0  0  0
   -0.4104   -2.1164   -0.6320 C   0  0  0  0  0  0  0  0  0  0  0  0
    0.8188   -2.5702   -1.0825 N   0  0  0  0  0  0  0  0  0  0  0  0
   -1.6114   -2.8922   -1.1072 C   0  0  0  0  0  0  0  0  0  0  0  0
   -1.7135   -0.5232    0.7768 C   0  0  0  0  0  0  0  0  0  0  0  0
   -1.8683   -0.2938    1.9666 O   0  0  0  0  0  0  0  0  0  0  0  0
   -2.5874   -0.2422   -0.2197 O   0  0  0  0  0  0  0  0  0  0  0  0
   -3.8181    0.3893    0.1745 C   0  0  0  0  0  0  0  0  0  0  0  0
   -4.3258    1.1706   -1.0309 C   0  0  0  0  0  0  0  0  0  0  0  0
   -4.8243   -0.6757    0.5938 C   0  0  0  0  0  0  0  0  0  0  0  0
    0.7602    1.1275    0.3786 C   0  0  0  0  0  0  0  0  0  0  0  0
    0.7390    2.0957    1.4199 C   0  0  0  0  0  0  0  0  0  0  0  0
    0.6879    3.4981    1.2019 C   0  0  0  0  0  0  0  0  0  0  0  0
    0.6496    4.0726   -0.0792 C   0  0  0  0  0  0  0  0  0  0  0  0
    0.6626    3.1444   -1.1348 C   0  0  0  0  0  0  0  0  0  0  0  0
    0.6266    3.3719   -2.4529 N   0  0  0  0  0  0  0  0  0  0  0  0
    0.6600    2.1243   -3.0501 O   0  0  0  0  0  0  0  0  0  0  0  0
    0.7094    1.1073   -2.1156 N   0  0  0  0  0  0  0  0  0  0  0  0
    0.7168    1.7027   -0.9160 C   0  0  0  0  0  0  0  0  0  0  0  0
    3.3724   -0.4206    0.6051 C   0  0  0  0  0  0  0  0  0  0  0  0
    4.3312   -0.2115   -0.1207 O   0  0  0  0  0  0  0  0  0  0  0  0
    3.3139   -0.1592    1.9365 O   0  0  0  0  0  0  0  0  0  0  0  0
    4.5103    0.4148    2.4640 C   0  0  0  0  0  0  0  0  0  0  0  0
    4.1372   -2.6574   -0.6123 H   0  0  0  0  0  0  0  0  0  0  0  0
    3.0691   -3.8210   -1.3639 H   0  0  0  0  0  0  0  0  0  0  0  0
    3.4993   -2.3439   -2.2454 H   0  0  0  0  0  0  0  0  0  0  0  0
    0.8235   -0.4891    1.7847 H   0  0  0  0  0  0  0  0  0  0  0  0
    0.8227   -3.3288   -1.7595 H   0  0  0  0  0  0  0  0  0  0  0  0
   -2.4805   -2.7755   -0.4540 H   0  0  0  0  0  0  0  0  0  0  0  0
   -1.3877   -3.9649   -1.1315 H   0  0  0  0  0  0  0  0  0  0  0  0
   -1.8865   -2.5781   -2.1190 H   0  0  0  0  0  0  0  0  0  0  0  0
   -3.6430    1.0943    0.9963 H   0  0  0  0  0  0  0  0  0  0  0  0
   -5.2665    1.6824   -0.8064 H   0  0  0  0  0  0  0  0  0  0  0  0
   -4.4806    0.5103   -1.8915 H   0  0  0  0  0  0  0  0  0  0  0  0
   -3.5861    1.9181   -1.3379 H   0  0  0  0  0  0  0  0  0  0  0  0
   -5.7879   -0.2288    0.8566 H   0  0  0  0  0  0  0  0  0  0  0  0
   -4.4579   -1.2384    1.4586 H   0  0  0  0  0  0  0  0  0  0  0  0
   -4.9815   -1.4038   -0.2097 H   0  0  0  0  0  0  0  0  0  0  0  0
    0.7567    1.7499    2.4566 H   0  0  0  0  0  0  0  0  0  0  0  0
    0.6743    4.1578    2.0704 H   0  0  0  0  0  0  0  0  0  0  0  0
    0.6090    5.1411   -0.2446 H   0  0  0  0  0  0  0  0  0  0  0  0
    5.3534   -0.2717    2.3381 H   0  0  0  0  0  0  0  0  0  0  0  0
    4.3602    0.5862    3.5335 H   0  0  0  0  0  0  0  0  0  0  0  0
    4.7171    1.3770    1.9851 H   0  0  0  0  0  0  0  0  0  0  0  0
  1  2  1  0
  2  3  2  0
  3  4  1  0
  4  5  1  0
  5  6  2  0
  6  7  1  0
  6  8  1  0
  5  9  1  0
  9 10  2  0
  9 11  1  0
 11 12  1  0
 12 13  1  0
 12 14  1  0
  4 15  1  0
 15 16  2  0
 16 17  1  0
 17 18  2  0
 18 19  1  0
 19 20  2  0
 20 21  1  0
 21 22  1  0
 22 23  2  0
  3 24  1  0
 24 25  2  0
 24 26  1  0
 26 27  1  0
  7  2  1  0
 23 15  1  0
 23 19  1  0
  1 28  1  0
  1 29  1  0
  1 30  1  0
  4 31  1  0
  7 32  1  0
  8 33  1  0
  8 34  1  0
  8 35  1  0
 12 36  1  0
 13 37  1  0
 13 38  1  0
 13 39  1  0
 14 40  1  0
 14 41  1  0
 14 42  1  0
 16 43  1  0
 17 44  1  0
 18 45  1  0
 27 46  1  0
 27 47  1  0
 27 48  1  0
M  END
>  <SMILES>  (1) 
CC1=C(C(C(=C(N1)C)C(=O)OC(C)C)C2=CC=CC3=NON=C32)C(=O)OC

$$$$
