CHRNA7_encenicline__hybrid_B_face_seed3301_ex32__pose01
     RDKit          3D

 38 41  0  0  0  0  0  0  0  0999 V2000
  143.6520  139.3520   95.6660 O   0  0  0  0  0  0  0  0  0  0  0  0
  142.7050  139.7210   95.0590 C   0  0  0  0  0  0  0  0  0  0  0  0
  142.6240  139.4770   93.6320 N   0  0  0  0  0  0  0  0  0  0  0  0
  143.7320  138.7700   92.9500 C   0  0  1  0  0  0  0  0  0  0  0  0
  143.3110  138.3920   91.5160 C   0  0  0  0  0  0  0  0  0  0  0  0
  144.1730  138.9540   90.5710 N   0  0  0  0  0  0  0  0  0  0  0  0
  145.4680  138.5390   90.7960 C   0  0  0  0  0  0  0  0  0  0  0  0
  145.9420  138.9390   92.1620 C   0  0  0  0  0  0  0  0  0  0  0  0
  144.9040  139.6380   92.8680 C   0  0  0  0  0  0  0  0  0  0  0  0
  144.5430  140.8260   92.0990 C   0  0  0  0  0  0  0  0  0  0  0  0
  144.1150  140.3670   90.6530 C   0  0  0  0  0  0  0  0  0  0  0  0
  141.5730  140.4500   95.7900 C   0  0  0  0  0  0  0  0  0  0  0  0
  140.2880  140.0350   95.8740 C   0  0  0  0  0  0  0  0  0  0  0  0
  139.3360  140.8270   96.5990 C   0  0  0  0  0  0  0  0  0  0  0  0
  138.0070  140.5460   96.7780 C   0  0  0  0  0  0  0  0  0  0  0  0
  137.2010  141.4180   97.5110 C   0  0  0  0  0  0  0  0  0  0  0  0
  137.7530  142.5850   98.0660 C   0  0  0  0  0  0  0  0  0  0  0  0
  139.1090  142.8770   97.8880 C   0  0  0  0  0  0  0  0  0  0  0  0
  139.8040  144.3580   98.5970 Cl  0  0  0  0  0  0  0  0  0  0  0  0
  139.9040  142.0200   97.1660 C   0  0  0  0  0  0  0  0  0  0  0  0
  141.6520  141.9500   96.6700 S   0  0  0  0  0  0  0  0  0  0  0  0
  141.8400  139.7790   93.1210 H   0  0  0  0  0  0  0  0  0  0  0  0
  143.9720  137.8643   93.5262 H   0  0  0  0  0  0  0  0  0  0  0  0
  143.3309  137.2970   91.4132 H   0  0  0  0  0  0  0  0  0  0  0  0
  142.2975  138.7804   91.3370 H   0  0  0  0  0  0  0  0  0  0  0  0
  145.5130  137.4434   90.7082 H   0  0  0  0  0  0  0  0  0  0  0  0
  146.1193  139.0177   90.0499 H   0  0  0  0  0  0  0  0  0  0  0  0
  146.2209  138.0375   92.7272 H   0  0  0  0  0  0  0  0  0  0  0  0
  146.8121  139.6038   92.0571 H   0  0  0  0  0  0  0  0  0  0  0  0
  145.2465  139.9179   93.8751 H   0  0  0  0  0  0  0  0  0  0  0  0
  143.7055  141.3454   92.5877 H   0  0  0  0  0  0  0  0  0  0  0  0
  145.3987  141.5148   92.0407 H   0  0  0  0  0  0  0  0  0  0  0  0
  143.0879  140.7045   90.4499 H   0  0  0  0  0  0  0  0  0  0  0  0
  144.7981  140.8063   89.9111 H   0  0  0  0  0  0  0  0  0  0  0  0
  139.9754  139.0978   95.3903 H   0  0  0  0  0  0  0  0  0  0  0  0
  137.5751  139.6324   96.3436 H   0  0  0  0  0  0  0  0  0  0  0  0
  136.1341  141.1919   97.6543 H   0  0  0  0  0  0  0  0  0  0  0  0
  137.1159  143.2716   98.6428 H   0  0  0  0  0  0  0  0  0  0  0  0
  1  2  2  0
  2  3  1  0
  3  4  1  0
  4  5  1  0
  5  6  1  0
  6  7  1  0
  7  8  1  0
  8  9  1  0
  9 10  1  0
 10 11  1  0
  2 12  1  0
 12 13  2  0
 13 14  1  0
 14 15  2  0
 15 16  1  0
 16 17  2  0
 17 18  1  0
 18 19  1  0
 18 20  2  0
 20 21  1  0
  9  4  1  0
 21 12  1  0
 11  6  1  0
 20 14  1  0
  3 22  1  0
  4 23  1  1
  5 24  1  0
  5 25  1  0
  7 26  1  0
  7 27  1  0
  8 28  1  0
  8 29  1  0
  9 30  1  0
 10 31  1  0
 10 32  1  0
 11 33  1  0
 11 34  1  0
 13 35  1  0
 15 36  1  0
 16 37  1  0
 17 38  1  0
M  END
>  <meeko>  (1)
{"is_sidechain": false}

>  <source_group>  (1)
CHRFAM7A at B face

>  <source_system>  (1)
CHRNA7_encenicline

>  <source_run>  (1)
hybrid_B_face_seed3301_ex32

>  <source_seed>  (1)
3301

>  <vina_pose_rank>  (1)
1

>  <vina_affinity_kcal_mol>  (1)
-6.9269999999999996

>  <vina_rmsd_to_crystal_angstrom>  (1)
8.3457000000000008

$$$$
CHRNA7_encenicline__hybrid_B_face_seed3301_ex32__pose02
     RDKit          3D

 38 41  0  0  0  0  0  0  0  0999 V2000
  146.4710  144.6040   93.6740 O   0  0  0  0  0  0  0  0  0  0  0  0
  146.6060  143.5860   94.2640 C   0  0  0  0  0  0  0  0  0  0  0  0
  147.8980  143.2440   94.8250 N   0  0  0  0  0  0  0  0  0  0  0  0
  149.0370  144.1740   94.6500 C   0  0  1  0  0  0  0  0  0  0  0  0
  149.4460  144.7660   96.0140 C   0  0  0  0  0  0  0  0  0  0  0  0
  150.7810  144.4800   96.3110 N   0  0  0  0  0  0  0  0  0  0  0  0
  151.6070  144.9760   95.3260 C   0  0  0  0  0  0  0  0  0  0  0  0
  151.2840  144.3790   93.9880 C   0  0  0  0  0  0  0  0  0  0  0  0
  150.1860  143.4600   94.1010 C   0  0  0  0  0  0  0  0  0  0  0  0
  150.5630  142.4050   95.0380 C   0  0  0  0  0  0  0  0  0  0  0  0
  150.9570  143.0780   96.4080 C   0  0  0  0  0  0  0  0  0  0  0  0
  145.4100  142.6420   94.4290 C   0  0  0  0  0  0  0  0  0  0  0  0
  144.3440  142.8490   95.2370 C   0  0  0  0  0  0  0  0  0  0  0  0
  143.2950  141.8710   95.2850 C   0  0  0  0  0  0  0  0  0  0  0  0
  142.1560  141.9320   96.0440 C   0  0  0  0  0  0  0  0  0  0  0  0
  141.2210  140.8970   95.9850 C   0  0  0  0  0  0  0  0  0  0  0  0
  141.4490  139.7920   95.1470 C   0  0  0  0  0  0  0  0  0  0  0  0
  142.6090  139.7250   94.3690 C   0  0  0  0  0  0  0  0  0  0  0  0
  142.8910  138.3210   93.3070 Cl  0  0  0  0  0  0  0  0  0  0  0  0
  143.5300  140.7430   94.4260 C   0  0  0  0  0  0  0  0  0  0  0  0
  145.1300  141.1140   93.6450 S   0  0  0  0  0  0  0  0  0  0  0  0
  148.0180  142.4010   95.3180 H   0  0  0  0  0  0  0  0  0  0  0  0
  148.7272  144.9764   93.9643 H   0  0  0  0  0  0  0  0  0  0  0  0
  149.3108  145.8573   95.9862 H   0  0  0  0  0  0  0  0  0  0  0  0
  148.8126  144.3155   96.7924 H   0  0  0  0  0  0  0  0  0  0  0  0
  151.4821  146.0675   95.2704 H   0  0  0  0  0  0  0  0  0  0  0  0
  152.6446  144.7141   95.5803 H   0  0  0  0  0  0  0  0  0  0  0  0
  151.0128  145.1833   93.2883 H   0  0  0  0  0  0  0  0  0  0  0  0
  152.1662  143.8366   93.6172 H   0  0  0  0  0  0  0  0  0  0  0  0
  149.9392  143.0341   93.1173 H   0  0  0  0  0  0  0  0  0  0  0  0
  149.7146  141.7215   95.1897 H   0  0  0  0  0  0  0  0  0  0  0  0
  151.4121  141.8300   94.6400 H   0  0  0  0  0  0  0  0  0  0  0  0
  150.3157  142.6822   97.2092 H   0  0  0  0  0  0  0  0  0  0  0  0
  152.0093  142.8547   96.6379 H   0  0  0  0  0  0  0  0  0  0  0  0
  144.2823  143.7592   95.8516 H   0  0  0  0  0  0  0  0  0  0  0  0
  141.9782  142.7968   96.7001 H   0  0  0  0  0  0  0  0  0  0  0  0
  140.3063  140.9463   96.5941 H   0  0  0  0  0  0  0  0  0  0  0  0
  140.7120  138.9766   95.1030 H   0  0  0  0  0  0  0  0  0  0  0  0
  1  2  2  0
  2  3  1  0
  3  4  1  0
  4  5  1  0
  5  6  1  0
  6  7  1  0
  7  8  1  0
  8  9  1  0
  9 10  1  0
 10 11  1  0
  2 12  1  0
 12 13  2  0
 13 14  1  0
 14 15  2  0
 15 16  1  0
 16 17  2  0
 17 18  1  0
 18 19  1  0
 18 20  2  0
 20 21  1  0
  9  4  1  0
 21 12  1  0
 11  6  1  0
 20 14  1  0
  3 22  1  0
  4 23  1  6
  5 24  1  0
  5 25  1  0
  7 26  1  0
  7 27  1  0
  8 28  1  0
  8 29  1  0
  9 30  1  0
 10 31  1  0
 10 32  1  0
 11 33  1  0
 11 34  1  0
 13 35  1  0
 15 36  1  0
 16 37  1  0
 17 38  1  0
M  END
>  <meeko>  (2)
{"is_sidechain": false}

>  <source_group>  (2)
CHRFAM7A at B face

>  <source_system>  (2)
CHRNA7_encenicline

>  <source_run>  (2)
hybrid_B_face_seed3301_ex32

>  <source_seed>  (2)
3301

>  <vina_pose_rank>  (2)
2

>  <vina_affinity_kcal_mol>  (2)
-6.0149999999999997

>  <vina_rmsd_to_crystal_angstrom>  (2)
9.8912999999999993

$$$$
CHRNA7_encenicline__hybrid_B_face_seed3301_ex32__pose03
     RDKit          3D

 38 41  0  0  0  0  0  0  0  0999 V2000
  146.7890  144.2240   93.4910 O   0  0  0  0  0  0  0  0  0  0  0  0
  146.3030  143.9190   94.5270 C   0  0  0  0  0  0  0  0  0  0  0  0
  146.7170  144.5910   95.7430 N   0  0  0  0  0  0  0  0  0  0  0  0
  147.7490  145.6500   95.6740 C   0  0  1  0  0  0  0  0  0  0  0  0
  147.0770  147.0320   95.5460 C   0  0  0  0  0  0  0  0  0  0  0  0
  147.4480  147.8740   96.5970 N   0  0  0  0  0  0  0  0  0  0  0  0
  148.8170  148.0280   96.6280 C   0  0  0  0  0  0  0  0  0  0  0  0
  149.5120  146.7120   96.8130 C   0  0  0  0  0  0  0  0  0  0  0  0
  148.5530  145.6460   96.8930 C   0  0  0  0  0  0  0  0  0  0  0  0
  147.6690  145.9040   98.0270 C   0  0  0  0  0  0  0  0  0  0  0  0
  147.0110  147.3230   97.8260 C   0  0  0  0  0  0  0  0  0  0  0  0
  145.2360  142.8190   94.5680 C   0  0  0  0  0  0  0  0  0  0  0  0
  144.1340  142.8150   95.3530 C   0  0  0  0  0  0  0  0  0  0  0  0
  143.2190  141.7110   95.2800 C   0  0  0  0  0  0  0  0  0  0  0  0
  142.0650  141.5580   96.0010 C   0  0  0  0  0  0  0  0  0  0  0  0
  141.2750  140.4220   95.8210 C   0  0  0  0  0  0  0  0  0  0  0  0
  141.6640  139.4340   94.9000 C   0  0  0  0  0  0  0  0  0  0  0  0
  142.8410  139.5860   94.1600 C   0  0  0  0  0  0  0  0  0  0  0  0
  143.3280  138.3310   92.9910 Cl  0  0  0  0  0  0  0  0  0  0  0  0
  143.6210  140.7030   94.3360 C   0  0  0  0  0  0  0  0  0  0  0  0
  145.1760  141.3440   93.6460 S   0  0  0  0  0  0  0  0  0  0  0  0
  146.3160  144.3450   96.6070 H   0  0  0  0  0  0  0  0  0  0  0  0
  148.3870  145.4549   94.7994 H   0  0  0  0  0  0  0  0  0  0  0  0
  147.3806  147.4917   94.5939 H   0  0  0  0  0  0  0  0  0  0  0  0
  145.9863  146.8931   95.5797 H   0  0  0  0  0  0  0  0  0  0  0  0
  149.1481  148.4774   95.6801 H   0  0  0  0  0  0  0  0  0  0  0  0
  149.0730  148.6771   97.4784 H   0  0  0  0  0  0  0  0  0  0  0  0
  150.1824  146.5331   95.9595 H   0  0  0  0  0  0  0  0  0  0  0  0
  150.0904  146.7424   97.7482 H   0  0  0  0  0  0  0  0  0  0  0  0
  149.0646  144.6796   97.0127 H   0  0  0  0  0  0  0  0  0  0  0  0
  146.8855  145.1332   98.0713 H   0  0  0  0  0  0  0  0  0  0  0  0
  148.2398  145.8796   98.9670 H   0  0  0  0  0  0  0  0  0  0  0  0
  145.9158  147.2213   97.8139 H   0  0  0  0  0  0  0  0  0  0  0  0
  147.3076  147.9860   98.6521 H   0  0  0  0  0  0  0  0  0  0  0  0
  143.9407  143.6508   96.0415 H   0  0  0  0  0  0  0  0  0  0  0  0
  141.7607  142.3308   96.7222 H   0  0  0  0  0  0  0  0  0  0  0  0
  140.3477  140.2996   96.3999 H   0  0  0  0  0  0  0  0  0  0  0  0
  141.0407  138.5384   94.7608 H   0  0  0  0  0  0  0  0  0  0  0  0
  1  2  2  0
  2  3  1  0
  3  4  1  0
  4  5  1  0
  5  6  1  0
  6  7  1  0
  7  8  1  0
  8  9  1  0
  9 10  1  0
 10 11  1  0
  2 12  1  0
 12 13  2  0
 13 14  1  0
 14 15  2  0
 15 16  1  0
 16 17  2  0
 17 18  1  0
 18 19  1  0
 18 20  2  0
 20 21  1  0
  9  4  1  0
 21 12  1  0
 11  6  1  0
 20 14  1  0
  3 22  1  0
  4 23  1  6
  5 24  1  0
  5 25  1  0
  7 26  1  0
  7 27  1  0
  8 28  1  0
  8 29  1  0
  9 30  1  0
 10 31  1  0
 10 32  1  0
 11 33  1  0
 11 34  1  0
 13 35  1  0
 15 36  1  0
 16 37  1  0
 17 38  1  0
M  END
>  <meeko>  (3)
{"is_sidechain": false}

>  <source_group>  (3)
CHRFAM7A at B face

>  <source_system>  (3)
CHRNA7_encenicline

>  <source_run>  (3)
hybrid_B_face_seed3301_ex32

>  <source_seed>  (3)
3301

>  <vina_pose_rank>  (3)
3

>  <vina_affinity_kcal_mol>  (3)
-5.883

>  <vina_rmsd_to_crystal_angstrom>  (3)
9.7799999999999994

$$$$
CHRNA7_encenicline__hybrid_B_face_seed3301_ex32__pose04
     RDKit          3D

 38 41  0  0  0  0  0  0  0  0999 V2000
  140.9610  141.1760   89.1350 O   0  0  0  0  0  0  0  0  0  0  0  0
  141.5220  140.1920   88.7890 C   0  0  0  0  0  0  0  0  0  0  0  0
  142.6030  139.6580   89.5950 N   0  0  0  0  0  0  0  0  0  0  0  0
  142.9930  140.3540   90.8430 C   0  0  1  0  0  0  0  0  0  0  0  0
  142.2550  139.7320   92.0450 C   0  0  0  0  0  0  0  0  0  0  0  0
  143.1560  139.2480   92.9970 N   0  0  0  0  0  0  0  0  0  0  0  0
  143.9810  140.2610   93.4350 C   0  0  0  0  0  0  0  0  0  0  0  0
  144.7660  140.8560   92.3040 C   0  0  0  0  0  0  0  0  0  0  0  0
  144.4290  140.2110   91.0660 C   0  0  0  0  0  0  0  0  0  0  0  0
  144.7360  138.7880   91.1890 C   0  0  0  0  0  0  0  0  0  0  0  0
  143.9440  138.2180   92.4260 C   0  0  0  0  0  0  0  0  0  0  0  0
  141.0970  139.4930   87.4940 C   0  0  0  0  0  0  0  0  0  0  0  0
  141.8140  139.4460   86.3470 C   0  0  0  0  0  0  0  0  0  0  0  0
  141.2830  138.7480   85.2110 C   0  0  0  0  0  0  0  0  0  0  0  0
  141.8810  138.6070   83.9860 C   0  0  0  0  0  0  0  0  0  0  0  0
  141.2370  137.8970   82.9720 C   0  0  0  0  0  0  0  0  0  0  0  0
  139.9750  137.3240   83.2080 C   0  0  0  0  0  0  0  0  0  0  0  0
  139.3610  137.4630   84.4560 C   0  0  0  0  0  0  0  0  0  0  0  0
  137.7610  136.7330   84.7490 Cl  0  0  0  0  0  0  0  0  0  0  0  0
  139.9920  138.1630   85.4560 C   0  0  0  0  0  0  0  0  0  0  0  0
  139.6300  138.6090   87.1810 S   0  0  0  0  0  0  0  0  0  0  0  0
  143.0720  138.8390   89.3160 H   0  0  0  0  0  0  0  0  0  0  0  0
  142.7288  141.4173   90.7446 H   0  0  0  0  0  0  0  0  0  0  0  0
  141.6185  140.4987   92.5109 H   0  0  0  0  0  0  0  0  0  0  0  0
  141.6468  138.8903   91.6821 H   0  0  0  0  0  0  0  0  0  0  0  0
  143.3669  141.0479   93.8972 H   0  0  0  0  0  0  0  0  0  0  0  0
  144.6893  139.8397   94.1636 H   0  0  0  0  0  0  0  0  0  0  0  0
  144.5355  141.9289   92.2280 H   0  0  0  0  0  0  0  0  0  0  0  0
  145.8388  140.7124   92.5003 H   0  0  0  0  0  0  0  0  0  0  0  0
  144.9933  140.6584   90.2345 H   0  0  0  0  0  0  0  0  0  0  0  0
  144.4278  138.2603   90.2744 H   0  0  0  0  0  0  0  0  0  0  0  0
  145.8172  138.6437   91.3311 H   0  0  0  0  0  0  0  0  0  0  0  0
  143.2909  137.3965   92.0965 H   0  0  0  0  0  0  0  0  0  0  0  0
  144.6557  137.8421   93.1758 H   0  0  0  0  0  0  0  0  0  0  0  0
  142.7956  139.9387   86.2860 H   0  0  0  0  0  0  0  0  0  0  0  0
  142.8692  139.0538   83.8020 H   0  0  0  0  0  0  0  0  0  0  0  0
  141.7165  137.7856   81.9883 H   0  0  0  0  0  0  0  0  0  0  0  0
  139.4690  136.7643   82.4076 H   0  0  0  0  0  0  0  0  0  0  0  0
  1  2  2  0
  2  3  1  0
  3  4  1  0
  4  5  1  0
  5  6  1  0
  6  7  1  0
  7  8  1  0
  8  9  1  0
  9 10  1  0
 10 11  1  0
  2 12  1  0
 12 13  2  0
 13 14  1  0
 14 15  2  0
 15 16  1  0
 16 17  2  0
 17 18  1  0
 18 19  1  0
 18 20  2  0
 20 21  1  0
  9  4  1  0
 21 12  1  0
 11  6  1  0
 20 14  1  0
  3 22  1  0
  4 23  1  6
  5 24  1  0
  5 25  1  0
  7 26  1  0
  7 27  1  0
  8 28  1  0
  8 29  1  0
  9 30  1  0
 10 31  1  0
 10 32  1  0
 11 33  1  0
 11 34  1  0
 13 35  1  0
 15 36  1  0
 16 37  1  0
 17 38  1  0
M  END
>  <meeko>  (4)
{"is_sidechain": false}

>  <source_group>  (4)
CHRFAM7A at B face

>  <source_system>  (4)
CHRNA7_encenicline

>  <source_run>  (4)
hybrid_B_face_seed3301_ex32

>  <source_seed>  (4)
3301

>  <vina_pose_rank>  (4)
4

>  <vina_affinity_kcal_mol>  (4)
-5.8330000000000002

>  <vina_rmsd_to_crystal_angstrom>  (4)
7.2866999999999997

$$$$
CHRNA7_encenicline__hybrid_B_face_seed3301_ex32__pose05
     RDKit          3D

 38 41  0  0  0  0  0  0  0  0999 V2000
  146.0340  144.8490   96.0300 O   0  0  0  0  0  0  0  0  0  0  0  0
  146.1530  144.2350   95.0240 C   0  0  0  0  0  0  0  0  0  0  0  0
  147.1390  144.6460   94.0430 N   0  0  0  0  0  0  0  0  0  0  0  0
  147.9820  145.8330   94.3100 C   0  0  1  0  0  0  0  0  0  0  0  0
  149.3450  145.3910   94.8790 C   0  0  0  0  0  0  0  0  0  0  0  0
  150.3980  145.8380   94.0760 N   0  0  0  0  0  0  0  0  0  0  0  0
  150.3670  147.2110   93.9640 C   0  0  0  0  0  0  0  0  0  0  0  0
  149.0790  147.6820   93.3570 C   0  0  0  0  0  0  0  0  0  0  0  0
  148.2220  146.5660   93.0700 C   0  0  0  0  0  0  0  0  0  0  0  0
  148.9150  145.6790   92.1390 C   0  0  0  0  0  0  0  0  0  0  0  0
  150.2900  145.2610   92.7860 C   0  0  0  0  0  0  0  0  0  0  0  0
  145.2670  143.0100   94.7730 C   0  0  0  0  0  0  0  0  0  0  0  0
  145.5450  141.9920   93.9270 C   0  0  0  0  0  0  0  0  0  0  0  0
  144.6150  140.9060   93.7990 C   0  0  0  0  0  0  0  0  0  0  0  0
  144.7490  139.8060   92.9940 C   0  0  0  0  0  0  0  0  0  0  0  0
  143.7530  138.8290   92.9750 C   0  0  0  0  0  0  0  0  0  0  0  0
  142.6130  138.9730   93.7830 C   0  0  0  0  0  0  0  0  0  0  0  0
  142.4710  140.0920   94.6090 C   0  0  0  0  0  0  0  0  0  0  0  0
  141.0220  140.2680   95.6340 Cl  0  0  0  0  0  0  0  0  0  0  0  0
  143.4500  141.0570   94.6280 C   0  0  0  0  0  0  0  0  0  0  0  0
  143.7270  142.6330   95.4910 S   0  0  0  0  0  0  0  0  0  0  0  0
  147.2460  144.1390   93.2060 H   0  0  0  0  0  0  0  0  0  0  0  0
  147.4577  146.4752   95.0330 H   0  0  0  0  0  0  0  0  0  0  0  0
  149.4635  145.8073   95.8903 H   0  0  0  0  0  0  0  0  0  0  0  0
  149.3706  144.2916   94.9061 H   0  0  0  0  0  0  0  0  0  0  0  0
  150.4739  147.6542   94.9651 H   0  0  0  0  0  0  0  0  0  0  0  0
  151.1931  147.5234   93.3083 H   0  0  0  0  0  0  0  0  0  0  0  0
  148.5715  148.3565   94.0623 H   0  0  0  0  0  0  0  0  0  0  0  0
  149.3000  148.2121   92.4188 H   0  0  0  0  0  0  0  0  0  0  0  0
  147.2718  146.9139   92.6387 H   0  0  0  0  0  0  0  0  0  0  0  0
  148.3037  144.7836   91.9532 H   0  0  0  0  0  0  0  0  0  0  0  0
  149.0868  146.1930   91.1818 H   0  0  0  0  0  0  0  0  0  0  0  0
  150.3385  144.1652   92.8689 H   0  0  0  0  0  0  0  0  0  0  0  0
  151.1168  145.6170   92.1539 H   0  0  0  0  0  0  0  0  0  0  0  0
  146.4763  141.9962   93.3417 H   0  0  0  0  0  0  0  0  0  0  0  0
  145.6423  139.6927   92.3621 H   0  0  0  0  0  0  0  0  0  0  0  0
  143.8605  137.9463   92.3275 H   0  0  0  0  0  0  0  0  0  0  0  0
  141.8286  138.2020   93.7657 H   0  0  0  0  0  0  0  0  0  0  0  0
  1  2  2  0
  2  3  1  0
  3  4  1  0
  4  5  1  0
  5  6  1  0
  6  7  1  0
  7  8  1  0
  8  9  1  0
  9 10  1  0
 10 11  1  0
  2 12  1  0
 12 13  2  0
 13 14  1  0
 14 15  2  0
 15 16  1  0
 16 17  2  0
 17 18  1  0
 18 19  1  0
 18 20  2  0
 20 21  1  0
  9  4  1  0
 21 12  1  0
 11  6  1  0
 20 14  1  0
  3 22  1  0
  4 23  1  1
  5 24  1  0
  5 25  1  0
  7 26  1  0
  7 27  1  0
  8 28  1  0
  8 29  1  0
  9 30  1  0
 10 31  1  0
 10 32  1  0
 11 33  1  0
 11 34  1  0
 13 35  1  0
 15 36  1  0
 16 37  1  0
 17 38  1  0
M  END
>  <meeko>  (5)
{"is_sidechain": false}

>  <source_group>  (5)
CHRFAM7A at B face

>  <source_system>  (5)
CHRNA7_encenicline

>  <source_run>  (5)
hybrid_B_face_seed3301_ex32

>  <source_seed>  (5)
3301

>  <vina_pose_rank>  (5)
5

>  <vina_affinity_kcal_mol>  (5)
-5.8159999999999998

>  <vina_rmsd_to_crystal_angstrom>  (5)
9.3526000000000007

$$$$
CHRNA7_encenicline__hybrid_B_face_seed3301_ex32__pose06
     RDKit          3D

 38 41  0  0  0  0  0  0  0  0999 V2000
  147.4740  138.5120   90.1100 O   0  0  0  0  0  0  0  0  0  0  0  0
  147.7060  138.3100   91.2530 C   0  0  0  0  0  0  0  0  0  0  0  0
  146.6370  138.3870   92.2300 N   0  0  0  0  0  0  0  0  0  0  0  0
  145.2660  138.7230   91.7850 C   0  0  1  0  0  0  0  0  0  0  0  0
  144.2340  137.9870   92.6620 C   0  0  0  0  0  0  0  0  0  0  0  0
  143.3720  138.8890   93.2930 N   0  0  0  0  0  0  0  0  0  0  0  0
  142.7170  139.6610   92.3580 C   0  0  0  0  0  0  0  0  0  0  0  0
  143.6840  140.4430   91.5190 C   0  0  0  0  0  0  0  0  0  0  0  0
  145.0350  140.1580   91.9150 C   0  0  0  0  0  0  0  0  0  0  0  0
  145.1900  140.5230   93.3210 C   0  0  0  0  0  0  0  0  0  0  0  0
  144.1140  139.7310   94.1580 C   0  0  0  0  0  0  0  0  0  0  0  0
  149.1350  137.9640   91.6860 C   0  0  0  0  0  0  0  0  0  0  0  0
  149.8510  138.6050   92.6390 C   0  0  0  0  0  0  0  0  0  0  0  0
  151.1830  138.1640   92.9380 C   0  0  0  0  0  0  0  0  0  0  0  0
  152.0320  138.7010   93.8690 C   0  0  0  0  0  0  0  0  0  0  0  0
  153.3060  138.1610   94.0470 C   0  0  0  0  0  0  0  0  0  0  0  0
  153.7190  137.0640   93.2700 C   0  0  0  0  0  0  0  0  0  0  0  0
  152.8560  136.5110   92.3190 C   0  0  0  0  0  0  0  0  0  0  0  0
  153.3850  135.1190   91.3380 Cl  0  0  0  0  0  0  0  0  0  0  0  0
  151.6010  137.0410   92.1420 C   0  0  0  0  0  0  0  0  0  0  0  0
  150.1650  136.6980   91.0810 S   0  0  0  0  0  0  0  0  0  0  0  0
  146.8220  138.2170   93.1820 H   0  0  0  0  0  0  0  0  0  0  0  0
  145.1580  138.4173   90.7339 H   0  0  0  0  0  0  0  0  0  0  0  0
  143.6430  137.3092   92.0285 H   0  0  0  0  0  0  0  0  0  0  0  0
  144.7742  137.4219   93.4358 H   0  0  0  0  0  0  0  0  0  0  0  0
  142.1248  139.0046   91.7035 H   0  0  0  0  0  0  0  0  0  0  0  0
  142.0671  140.3714   92.8898 H   0  0  0  0  0  0  0  0  0  0  0  0
  143.5507  140.1691   90.4620 H   0  0  0  0  0  0  0  0  0  0  0  0
  143.4903  141.5168   91.6586 H   0  0  0  0  0  0  0  0  0  0  0  0
  145.7439  140.7190   91.2884 H   0  0  0  0  0  0  0  0  0  0  0  0
  146.1999  140.2561   93.6657 H   0  0  0  0  0  0  0  0  0  0  0  0
  145.0490  141.6063   93.4497 H   0  0  0  0  0  0  0  0  0  0  0  0
  144.6191  139.1201   94.9207 H   0  0  0  0  0  0  0  0  0  0  0  0
  143.4347  140.4424   94.6504 H   0  0  0  0  0  0  0  0  0  0  0  0
  149.4149  139.4576   93.1802 H   0  0  0  0  0  0  0  0  0  0  0  0
  151.7090  139.5589   94.4770 H   0  0  0  0  0  0  0  0  0  0  0  0
  153.9872  138.5931   94.7948 H   0  0  0  0  0  0  0  0  0  0  0  0
  154.7240  136.6397   93.4108 H   0  0  0  0  0  0  0  0  0  0  0  0
  1  2  2  0
  2  3  1  0
  3  4  1  0
  4  5  1  0
  5  6  1  0
  6  7  1  0
  7  8  1  0
  8  9  1  0
  9 10  1  0
 10 11  1  0
  2 12  1  0
 12 13  2  0
 13 14  1  0
 14 15  2  0
 15 16  1  0
 16 17  2  0
 17 18  1  0
 18 19  1  0
 18 20  2  0
 20 21  1  0
  9  4  1  0
 21 12  1  0
 11  6  1  0
 20 14  1  0
  3 22  1  0
  4 23  1  6
  5 24  1  0
  5 25  1  0
  7 26  1  0
  7 27  1  0
  8 28  1  0
  8 29  1  0
  9 30  1  0
 10 31  1  0
 10 32  1  0
 11 33  1  0
 11 34  1  0
 13 35  1  0
 15 36  1  0
 16 37  1  0
 17 38  1  0
M  END
>  <meeko>  (6)
{"is_sidechain": false}

>  <source_group>  (6)
CHRFAM7A at B face

>  <source_system>  (6)
CHRNA7_encenicline

>  <source_run>  (6)
hybrid_B_face_seed3301_ex32

>  <source_seed>  (6)
3301

>  <vina_pose_rank>  (6)
6

>  <vina_affinity_kcal_mol>  (6)
-5.7530000000000001

>  <vina_rmsd_to_crystal_angstrom>  (6)
6.3983999999999996

$$$$
CHRNA7_encenicline__hybrid_B_face_seed3301_ex32__pose07
     RDKit          3D

 38 41  0  0  0  0  0  0  0  0999 V2000
  145.9190  145.2400   94.3960 O   0  0  0  0  0  0  0  0  0  0  0  0
  146.2490  144.1230   94.6140 C   0  0  0  0  0  0  0  0  0  0  0  0
  147.6540  143.8060   94.7770 N   0  0  0  0  0  0  0  0  0  0  0  0
  148.6630  144.8850   94.6650 C   0  0  1  0  0  0  0  0  0  0  0  0
  149.3150  145.1390   96.0380 C   0  0  0  0  0  0  0  0  0  0  0  0
  150.6990  144.9550   95.9830 N   0  0  0  0  0  0  0  0  0  0  0  0
  151.2570  145.7950   95.0440 C   0  0  0  0  0  0  0  0  0  0  0  0
  150.6940  145.5400   93.6780 C   0  0  0  0  0  0  0  0  0  0  0  0
  149.7110  144.4940   93.7280 C   0  0  0  0  0  0  0  0  0  0  0  0
  150.3530  143.2830   94.2340 C   0  0  0  0  0  0  0  0  0  0  0  0
  150.9870  143.6110   95.6390 C   0  0  0  0  0  0  0  0  0  0  0  0
  145.1840  143.0260   94.7250 C   0  0  0  0  0  0  0  0  0  0  0  0
  145.1450  141.8850   94.0000 C   0  0  0  0  0  0  0  0  0  0  0  0
  144.0820  140.9460   94.2180 C   0  0  0  0  0  0  0  0  0  0  0  0
  143.9010  139.7510   93.5730 C   0  0  0  0  0  0  0  0  0  0  0  0
  142.8120  138.9410   93.8940 C   0  0  0  0  0  0  0  0  0  0  0  0
  141.8980  139.3510   94.8800 C   0  0  0  0  0  0  0  0  0  0  0  0
  142.0770  140.5690   95.5440 C   0  0  0  0  0  0  0  0  0  0  0  0
  140.9170  141.0830   96.7960 Cl  0  0  0  0  0  0  0  0  0  0  0  0
  143.1500  141.3690   95.2290 C   0  0  0  0  0  0  0  0  0  0  0  0
  143.8000  142.9750   95.7790 S   0  0  0  0  0  0  0  0  0  0  0  0
  147.9360  142.8810   94.9610 H   0  0  0  0  0  0  0  0  0  0  0  0
  148.1588  145.7958   94.3096 H   0  0  0  0  0  0  0  0  0  0  0  0
  149.1027  146.1722   96.3502 H   0  0  0  0  0  0  0  0  0  0  0  0
  148.8971  144.4216   96.7596 H   0  0  0  0  0  0  0  0  0  0  0  0
  151.0492  146.8372   95.3278 H   0  0  0  0  0  0  0  0  0  0  0  0
  152.3404  145.6074   95.0123 H   0  0  0  0  0  0  0  0  0  0  0  0
  150.2243  146.4609   93.3020 H   0  0  0  0  0  0  0  0  0  0  0  0
  151.5099  145.2307   93.0082 H   0  0  0  0  0  0  0  0  0  0  0  0
  149.2860  144.3186   92.7287 H   0  0  0  0  0  0  0  0  0  0  0  0
  149.6061  142.4825   94.3404 H   0  0  0  0  0  0  0  0  0  0  0  0
  151.1327  142.9463   93.5350 H   0  0  0  0  0  0  0  0  0  0  0  0
  150.5626  142.9386   96.3991 H   0  0  0  0  0  0  0  0  0  0  0  0
  152.0768  143.4690   95.5925 H   0  0  0  0  0  0  0  0  0  0  0  0
  145.9219  141.6784   93.2492 H   0  0  0  0  0  0  0  0  0  0  0  0
  144.6156  139.4299   92.8008 H   0  0  0  0  0  0  0  0  0  0  0  0
  142.6684  137.9815   93.3757 H   0  0  0  0  0  0  0  0  0  0  0  0
  141.0387  138.7116   95.1304 H   0  0  0  0  0  0  0  0  0  0  0  0
  1  2  2  0
  2  3  1  0
  3  4  1  0
  4  5  1  0
  5  6  1  0
  6  7  1  0
  7  8  1  0
  8  9  1  0
  9 10  1  0
 10 11  1  0
  2 12  1  0
 12 13  2  0
 13 14  1  0
 14 15  2  0
 15 16  1  0
 16 17  2  0
 17 18  1  0
 18 19  1  0
 18 20  2  0
 20 21  1  0
  9  4  1  0
 21 12  1  0
 11  6  1  0
 20 14  1  0
  3 22  1  0
  4 23  1  6
  5 24  1  0
  5 25  1  0
  7 26  1  0
  7 27  1  0
  8 28  1  0
  8 29  1  0
  9 30  1  0
 10 31  1  0
 10 32  1  0
 11 33  1  0
 11 34  1  0
 13 35  1  0
 15 36  1  0
 16 37  1  0
 17 38  1  0
M  END
>  <meeko>  (7)
{"is_sidechain": false}

>  <source_group>  (7)
CHRFAM7A at B face

>  <source_system>  (7)
CHRNA7_encenicline

>  <source_run>  (7)
hybrid_B_face_seed3301_ex32

>  <source_seed>  (7)
3301

>  <vina_pose_rank>  (7)
7

>  <vina_affinity_kcal_mol>  (7)
-5.7489999999999997

>  <vina_rmsd_to_crystal_angstrom>  (7)
9.8495000000000008

$$$$
CHRNA7_encenicline__hybrid_B_face_seed3301_ex32__pose08
     RDKit          3D

 38 41  0  0  0  0  0  0  0  0999 V2000
  146.3090  138.7090   90.4870 O   0  0  0  0  0  0  0  0  0  0  0  0
  146.5590  138.7410   91.6440 C   0  0  0  0  0  0  0  0  0  0  0  0
  147.8290  138.2300   92.1220 N   0  0  0  0  0  0  0  0  0  0  0  0
  148.7990  137.6700   91.1530 C   0  0  1  0  0  0  0  0  0  0  0  0
  149.7730  138.7700   90.6890 C   0  0  0  0  0  0  0  0  0  0  0  0
  151.0980  138.4260   90.9730 N   0  0  0  0  0  0  0  0  0  0  0  0
  151.4240  137.2340   90.3630 C   0  0  0  0  0  0  0  0  0  0  0  0
  150.5370  136.1180   90.8320 C   0  0  0  0  0  0  0  0  0  0  0  0
  149.5770  136.6070   91.7820 C   0  0  0  0  0  0  0  0  0  0  0  0
  150.3000  137.1760   92.9160 C   0  0  0  0  0  0  0  0  0  0  0  0
  151.2670  138.2970   92.3730 C   0  0  0  0  0  0  0  0  0  0  0  0
  145.5360  139.3260   92.6250 C   0  0  0  0  0  0  0  0  0  0  0  0
  144.3640  138.7520   92.9830 C   0  0  0  0  0  0  0  0  0  0  0  0
  143.5070  139.4220   93.9180 C   0  0  0  0  0  0  0  0  0  0  0  0
  142.2970  138.9770   94.3820 C   0  0  0  0  0  0  0  0  0  0  0  0
  141.5730  139.7450   95.2940 C   0  0  0  0  0  0  0  0  0  0  0  0
  142.0840  140.9770   95.7370 C   0  0  0  0  0  0  0  0  0  0  0  0
  143.3190  141.4360   95.2690 C   0  0  0  0  0  0  0  0  0  0  0  0
  143.9640  142.9990   95.8370 Cl  0  0  0  0  0  0  0  0  0  0  0  0
  144.0340  140.6820   94.3700 C   0  0  0  0  0  0  0  0  0  0  0  0
  145.6210  140.8300   93.4960 S   0  0  0  0  0  0  0  0  0  0  0  0
  148.0450  138.2540   93.0810 H   0  0  0  0  0  0  0  0  0  0  0  0
  148.2399  137.2712   90.2937 H   0  0  0  0  0  0  0  0  0  0  0  0
  149.6639  138.9111   89.6036 H   0  0  0  0  0  0  0  0  0  0  0  0
  149.5315  139.6983   91.2275 H   0  0  0  0  0  0  0  0  0  0  0  0
  151.3121  137.3467   89.2745 H   0  0  0  0  0  0  0  0  0  0  0  0
  152.4627  136.9839   90.6249 H   0  0  0  0  0  0  0  0  0  0  0  0
  150.0068  135.6893   89.9688 H   0  0  0  0  0  0  0  0  0  0  0  0
  151.1570  135.3484   91.3151 H   0  0  0  0  0  0  0  0  0  0  0  0
  148.9162  135.7922   92.1129 H   0  0  0  0  0  0  0  0  0  0  0  0
  149.5870  137.6135   93.6303 H   0  0  0  0  0  0  0  0  0  0  0  0
  150.8772  136.3930   93.4295 H   0  0  0  0  0  0  0  0  0  0  0  0
  151.0302  139.2540   92.8610 H   0  0  0  0  0  0  0  0  0  0  0  0
  152.3090  138.0220   92.5936 H   0  0  0  0  0  0  0  0  0  0  0  0
  144.0709  137.7796   92.5605 H   0  0  0  0  0  0  0  0  0  0  0  0
  141.8962  138.0132   94.0350 H   0  0  0  0  0  0  0  0  0  0  0  0
  140.6021  139.3864   95.6665 H   0  0  0  0  0  0  0  0  0  0  0  0
  141.5104  141.5822   96.4544 H   0  0  0  0  0  0  0  0  0  0  0  0
  1  2  2  0
  2  3  1  0
  3  4  1  0
  4  5  1  0
  5  6  1  0
  6  7  1  0
  7  8  1  0
  8  9  1  0
  9 10  1  0
 10 11  1  0
  2 12  1  0
 12 13  2  0
 13 14  1  0
 14 15  2  0
 15 16  1  0
 16 17  2  0
 17 18  1  0
 18 19  1  0
 18 20  2  0
 20 21  1  0
  9  4  1  0
 21 12  1  0
 11  6  1  0
 20 14  1  0
  3 22  1  0
  4 23  1  6
  5 24  1  0
  5 25  1  0
  7 26  1  0
  7 27  1  0
  8 28  1  0
  8 29  1  0
  9 30  1  0
 10 31  1  0
 10 32  1  0
 11 33  1  0
 11 34  1  0
 13 35  1  0
 15 36  1  0
 16 37  1  0
 17 38  1  0
M  END
>  <meeko>  (8)
{"is_sidechain": false}

>  <source_group>  (8)
CHRFAM7A at B face

>  <source_system>  (8)
CHRNA7_encenicline

>  <source_run>  (8)
hybrid_B_face_seed3301_ex32

>  <source_seed>  (8)
3301

>  <vina_pose_rank>  (8)
8

>  <vina_affinity_kcal_mol>  (8)
-5.7149999999999999

>  <vina_rmsd_to_crystal_angstrom>  (8)
8.6021000000000001

$$$$
CHRNA7_encenicline__hybrid_B_face_seed3301_ex32__pose09
     RDKit          3D

 38 41  0  0  0  0  0  0  0  0999 V2000
  146.8220  144.3660   93.4030 O   0  0  0  0  0  0  0  0  0  0  0  0
  146.4780  144.0180   94.4810 C   0  0  0  0  0  0  0  0  0  0  0  0
  147.1150  144.5800   95.6570 N   0  0  0  0  0  0  0  0  0  0  0  0
  148.1920  145.5820   95.4930 C   0  0  1  0  0  0  0  0  0  0  0  0
  147.5960  147.0030   95.5160 C   0  0  0  0  0  0  0  0  0  0  0  0
  148.1540  147.7700   96.5410 N   0  0  0  0  0  0  0  0  0  0  0  0
  149.5220  147.8460   96.3920 C   0  0  0  0  0  0  0  0  0  0  0  0
  150.1530  146.4860   96.4260 C   0  0  0  0  0  0  0  0  0  0  0  0
  149.1490  145.4720   96.5900 C   0  0  0  0  0  0  0  0  0  0  0  0
  148.4420  145.7220   97.8440 C   0  0  0  0  0  0  0  0  0  0  0  0
  147.8520  147.1830   97.7940 C   0  0  0  0  0  0  0  0  0  0  0  0
  145.3600  142.9790   94.6220 C   0  0  0  0  0  0  0  0  0  0  0  0
  145.2660  141.8190   93.9310 C   0  0  0  0  0  0  0  0  0  0  0  0
  144.1570  140.9410   94.1730 C   0  0  0  0  0  0  0  0  0  0  0  0
  143.9190  139.7380   93.5630 C   0  0  0  0  0  0  0  0  0  0  0  0
  142.7900  138.9930   93.9050 C   0  0  0  0  0  0  0  0  0  0  0  0
  141.8960  139.4770   94.8750 C   0  0  0  0  0  0  0  0  0  0  0  0
  142.1340  140.7040   95.5020 C   0  0  0  0  0  0  0  0  0  0  0  0
  140.9970  141.3120   96.7340 Cl  0  0  0  0  0  0  0  0  0  0  0  0
  143.2450  141.4400   95.1670 C   0  0  0  0  0  0  0  0  0  0  0  0
  143.9720  143.0280   95.6710 S   0  0  0  0  0  0  0  0  0  0  0  0
  146.8330  144.2970   96.5570 H   0  0  0  0  0  0  0  0  0  0  0  0
  148.6945  145.3961   94.5323 H   0  0  0  0  0  0  0  0  0  0  0  0
  147.7980  147.4921   94.5516 H   0  0  0  0  0  0  0  0  0  0  0  0
  146.5131  146.9229   95.6920 H   0  0  0  0  0  0  0  0  0  0  0  0
  149.7509  148.3226   95.4274 H   0  0  0  0  0  0  0  0  0  0  0  0
  149.9286  148.4370   97.2259 H   0  0  0  0  0  0  0  0  0  0  0  0
  150.6922  146.3130   95.4830 H   0  0  0  0  0  0  0  0  0  0  0  0
  150.8509  146.4376   97.2749 H   0  0  0  0  0  0  0  0  0  0  0  0
  149.6107  144.4736   96.5977 H   0  0  0  0  0  0  0  0  0  0  0  0
  147.6255  144.9945   97.9625 H   0  0  0  0  0  0  0  0  0  0  0  0
  149.1308  145.6193   98.6955 H   0  0  0  0  0  0  0  0  0  0  0  0
  146.7608  147.1428   97.9269 H   0  0  0  0  0  0  0  0  0  0  0  0
  148.2967  147.7864   98.5990 H   0  0  0  0  0  0  0  0  0  0  0  0
  146.0335  141.5514   93.1899 H   0  0  0  0  0  0  0  0  0  0  0  0
  144.6183  139.3590   92.8031 H   0  0  0  0  0  0  0  0  0  0  0  0
  142.5997  138.0266   93.4152 H   0  0  0  0  0  0  0  0  0  0  0  0
  141.0058  138.8886   95.1421 H   0  0  0  0  0  0  0  0  0  0  0  0
  1  2  2  0
  2  3  1  0
  3  4  1  0
  4  5  1  0
  5  6  1  0
  6  7  1  0
  7  8  1  0
  8  9  1  0
  9 10  1  0
 10 11  1  0
  2 12  1  0
 12 13  2  0
 13 14  1  0
 14 15  2  0
 15 16  1  0
 16 17  2  0
 17 18  1  0
 18 19  1  0
 18 20  2  0
 20 21  1  0
  9  4  1  0
 21 12  1  0
 11  6  1  0
 20 14  1  0
  3 22  1  0
  4 23  1  6
  5 24  1  0
  5 25  1  0
  7 26  1  0
  7 27  1  0
  8 28  1  0
  8 29  1  0
  9 30  1  0
 10 31  1  0
 10 32  1  0
 11 33  1  0
 11 34  1  0
 13 35  1  0
 15 36  1  0
 16 37  1  0
 17 38  1  0
M  END
>  <meeko>  (9)
{"is_sidechain": false}

>  <source_group>  (9)
CHRFAM7A at B face

>  <source_system>  (9)
CHRNA7_encenicline

>  <source_run>  (9)
hybrid_B_face_seed3301_ex32

>  <source_seed>  (9)
3301

>  <vina_pose_rank>  (9)
9

>  <vina_affinity_kcal_mol>  (9)
-5.6639999999999997

>  <vina_rmsd_to_crystal_angstrom>  (9)
10.0153

$$$$
CHRNA7_encenicline__hybrid_B_face_seed3301_ex32__pose10
     RDKit          3D

 38 41  0  0  0  0  0  0  0  0999 V2000
  146.0260  145.2340   95.8020 O   0  0  0  0  0  0  0  0  0  0  0  0
  146.1700  144.4660   94.9120 C   0  0  0  0  0  0  0  0  0  0  0  0
  147.2060  144.6950   93.9240 N   0  0  0  0  0  0  0  0  0  0  0  0
  148.0700  145.8920   94.0390 C   0  0  1  0  0  0  0  0  0  0  0  0
  149.3480  145.5440   94.8270 C   0  0  0  0  0  0  0  0  0  0  0  0
  150.4950  145.7940   94.0690 N   0  0  0  0  0  0  0  0  0  0  0  0
  150.5360  147.1160   93.6840 C   0  0  0  0  0  0  0  0  0  0  0  0
  149.3370  147.4840   92.8600 C   0  0  0  0  0  0  0  0  0  0  0  0
  148.4650  146.3530   92.7110 C   0  0  0  0  0  0  0  0  0  0  0  0
  149.2090  145.2810   92.0550 C   0  0  0  0  0  0  0  0  0  0  0  0
  150.4920  144.9710   92.9160 C   0  0  0  0  0  0  0  0  0  0  0  0
  145.2610  143.2350   94.8180 C   0  0  0  0  0  0  0  0  0  0  0  0
  144.0820  143.0710   95.4600 C   0  0  0  0  0  0  0  0  0  0  0  0
  143.3380  141.8590   95.2710 C   0  0  0  0  0  0  0  0  0  0  0  0
  142.1340  141.5410   95.8430 C   0  0  0  0  0  0  0  0  0  0  0  0
  141.5290  140.3150   95.5630 C   0  0  0  0  0  0  0  0  0  0  0  0
  142.1560  139.4060   94.6940 C   0  0  0  0  0  0  0  0  0  0  0  0
  143.3840  139.7240   94.1060 C   0  0  0  0  0  0  0  0  0  0  0  0
  144.1720  138.5670   93.0020 Cl  0  0  0  0  0  0  0  0  0  0  0  0
  143.9810  140.9310   94.3800 C   0  0  0  0  0  0  0  0  0  0  0  0
  145.5110  141.7830   93.8910 S   0  0  0  0  0  0  0  0  0  0  0  0
  147.3340  144.0600   93.1830 H   0  0  0  0  0  0  0  0  0  0  0  0
  147.5047  146.6787   94.5601 H   0  0  0  0  0  0  0  0  0  0  0  0
  149.3826  146.1544   95.7415 H   0  0  0  0  0  0  0  0  0  0  0  0
  149.3223  144.4727   95.0753 H   0  0  0  0  0  0  0  0  0  0  0  0
  150.5608  147.7498   94.5827 H   0  0  0  0  0  0  0  0  0  0  0  0
  151.4370  147.2705   93.0722 H   0  0  0  0  0  0  0  0  0  0  0  0
  148.7914  148.2990   93.3580 H   0  0  0  0  0  0  0  0  0  0  0  0
  149.6744  147.8077   91.8643 H   0  0  0  0  0  0  0  0  0  0  0  0
  147.5787  146.6275   92.1202 H   0  0  0  0  0  0  0  0  0  0  0  0
  148.5809  144.3806   91.9858 H   0  0  0  0  0  0  0  0  0  0  0  0
  149.4990  145.5874   91.0391 H   0  0  0  0  0  0  0  0  0  0  0  0
  150.4835  143.9138   93.2197 H   0  0  0  0  0  0  0  0  0  0  0  0
  151.3932  145.1726   92.3183 H   0  0  0  0  0  0  0  0  0  0  0  0
  143.6966  143.8606   96.1218 H   0  0  0  0  0  0  0  0  0  0  0  0
  141.6439  142.2528   96.5235 H   0  0  0  0  0  0  0  0  0  0  0  0
  140.5623  140.0605   96.0221 H   0  0  0  0  0  0  0  0  0  0  0  0
  141.6784  138.4396   94.4753 H   0  0  0  0  0  0  0  0  0  0  0  0
  1  2  2  0
  2  3  1  0
  3  4  1  0
  4  5  1  0
  5  6  1  0
  6  7  1  0
  7  8  1  0
  8  9  1  0
  9 10  1  0
 10 11  1  0
  2 12  1  0
 12 13  2  0
 13 14  1  0
 14 15  2  0
 15 16  1  0
 16 17  2  0
 17 18  1  0
 18 19  1  0
 18 20  2  0
 20 21  1  0
  9  4  1  0
 21 12  1  0
 11  6  1  0
 20 14  1  0
  3 22  1  0
  4 23  1  1
  5 24  1  0
  5 25  1  0
  7 26  1  0
  7 27  1  0
  8 28  1  0
  8 29  1  0
  9 30  1  0
 10 31  1  0
 10 32  1  0
 11 33  1  0
 11 34  1  0
 13 35  1  0
 15 36  1  0
 16 37  1  0
 17 38  1  0
M  END
>  <meeko>  (10)
{"is_sidechain": false}

>  <source_group>  (10)
CHRFAM7A at B face

>  <source_system>  (10)
CHRNA7_encenicline

>  <source_run>  (10)
hybrid_B_face_seed3301_ex32

>  <source_seed>  (10)
3301

>  <vina_pose_rank>  (10)
10

>  <vina_affinity_kcal_mol>  (10)
-5.6429999999999998

>  <vina_rmsd_to_crystal_angstrom>  (10)
9.4459

$$$$
CHRNA7_encenicline__hybrid_B_face_seed3301_ex32__pose11
     RDKit          3D

 38 41  0  0  0  0  0  0  0  0999 V2000
  147.4550  138.5770   90.0730 O   0  0  0  0  0  0  0  0  0  0  0  0
  147.6920  138.2770   91.1930 C   0  0  0  0  0  0  0  0  0  0  0  0
  146.6320  138.2850   92.1820 N   0  0  0  0  0  0  0  0  0  0  0  0
  145.2620  138.6740   91.7770 C   0  0  1  0  0  0  0  0  0  0  0  0
  144.2270  137.9520   92.6620 C   0  0  0  0  0  0  0  0  0  0  0  0
  143.4100  138.8650   93.3330 N   0  0  0  0  0  0  0  0  0  0  0  0
  142.7580  139.6780   92.4310 C   0  0  0  0  0  0  0  0  0  0  0  0
  143.7300  140.4480   91.5870 C   0  0  0  0  0  0  0  0  0  0  0  0
  145.0800  140.1130   91.9440 C   0  0  0  0  0  0  0  0  0  0  0  0
  145.2780  140.4400   93.3530 C   0  0  0  0  0  0  0  0  0  0  0  0
  144.1980  139.6640   94.1980 C   0  0  0  0  0  0  0  0  0  0  0  0
  149.1200  137.8790   91.5850 C   0  0  0  0  0  0  0  0  0  0  0  0
  149.8250  136.8480   91.0640 C   0  0  0  0  0  0  0  0  0  0  0  0
  151.1590  136.5970   91.5310 C   0  0  0  0  0  0  0  0  0  0  0  0
  152.0000  135.6030   91.1080 C   0  0  0  0  0  0  0  0  0  0  0  0
  153.2750  135.4840   91.6600 C   0  0  0  0  0  0  0  0  0  0  0  0
  153.6980  136.3850   92.6520 C   0  0  0  0  0  0  0  0  0  0  0  0
  152.8450  137.4040   93.0880 C   0  0  0  0  0  0  0  0  0  0  0  0
  153.3870  138.5460   94.3450 Cl  0  0  0  0  0  0  0  0  0  0  0  0
  151.5880  137.5230   92.5460 C   0  0  0  0  0  0  0  0  0  0  0  0
  150.1610  138.6280   92.7610 S   0  0  0  0  0  0  0  0  0  0  0  0
  146.8200  138.0340   93.1150 H   0  0  0  0  0  0  0  0  0  0  0  0
  145.1204  138.3951   90.7224 H   0  0  0  0  0  0  0  0  0  0  0  0
  143.5998  137.3082   92.0278 H   0  0  0  0  0  0  0  0  0  0  0  0
  144.7667  137.3529   93.4102 H   0  0  0  0  0  0  0  0  0  0  0  0
  142.1304  139.0554   91.7764 H   0  0  0  0  0  0  0  0  0  0  0  0
  142.1429  140.3959   92.9933 H   0  0  0  0  0  0  0  0  0  0  0  0
  143.5639  140.2022   90.5278 H   0  0  0  0  0  0  0  0  0  0  0  0
  143.5736  141.5237   91.7552 H   0  0  0  0  0  0  0  0  0  0  0  0
  145.7918  140.6662   91.3136 H   0  0  0  0  0  0  0  0  0  0  0  0
  146.2866  140.1339   93.6676 H   0  0  0  0  0  0  0  0  0  0  0  0
  145.1735  141.5239   93.5086 H   0  0  0  0  0  0  0  0  0  0  0  0
  144.7011  139.0209   94.9351 H   0  0  0  0  0  0  0  0  0  0  0  0
  143.5532  140.3850   94.7219 H   0  0  0  0  0  0  0  0  0  0  0  0
  149.3793  136.2074   90.2888 H   0  0  0  0  0  0  0  0  0  0  0  0
  151.6695  134.8973   90.3316 H   0  0  0  0  0  0  0  0  0  0  0  0
  153.9496  134.6849   91.3190 H   0  0  0  0  0  0  0  0  0  0  0  0
  154.7036  136.2885   93.0872 H   0  0  0  0  0  0  0  0  0  0  0  0
  1  2  2  0
  2  3  1  0
  3  4  1  0
  4  5  1  0
  5  6  1  0
  6  7  1  0
  7  8  1  0
  8  9  1  0
  9 10  1  0
 10 11  1  0
  2 12  1  0
 12 13  2  0
 13 14  1  0
 14 15  2  0
 15 16  1  0
 16 17  2  0
 17 18  1  0
 18 19  1  0
 18 20  2  0
 20 21  1  0
  9  4  1  0
 21 12  1  0
 11  6  1  0
 20 14  1  0
  3 22  1  0
  4 23  1  6
  5 24  1  0
  5 25  1  0
  7 26  1  0
  7 27  1  0
  8 28  1  0
  8 29  1  0
  9 30  1  0
 10 31  1  0
 10 32  1  0
 11 33  1  0
 11 34  1  0
 13 35  1  0
 15 36  1  0
 16 37  1  0
 17 38  1  0
M  END
>  <meeko>  (11)
{"is_sidechain": false}

>  <source_group>  (11)
CHRFAM7A at B face

>  <source_system>  (11)
CHRNA7_encenicline

>  <source_run>  (11)
hybrid_B_face_seed3301_ex32

>  <source_seed>  (11)
3301

>  <vina_pose_rank>  (11)
11

>  <vina_affinity_kcal_mol>  (11)
-5.5430000000000001

>  <vina_rmsd_to_crystal_angstrom>  (11)
6.2750000000000004

$$$$
CHRNA7_encenicline__hybrid_B_face_seed3301_ex32__pose12
     RDKit          3D

 38 41  0  0  0  0  0  0  0  0999 V2000
  148.4910  137.6560   92.3040 O   0  0  0  0  0  0  0  0  0  0  0  0
  147.9460  138.1300   91.3650 C   0  0  0  0  0  0  0  0  0  0  0  0
  148.6520  138.2410   90.1030 N   0  0  0  0  0  0  0  0  0  0  0  0
  150.0490  137.7620   90.0050 C   0  0  1  0  0  0  0  0  0  0  0  0
  150.0810  136.3600   89.3650 C   0  0  0  0  0  0  0  0  0  0  0  0
  150.8570  136.3510   88.2030 N   0  0  0  0  0  0  0  0  0  0  0  0
  152.1430  136.7600   88.4820 C   0  0  0  0  0  0  0  0  0  0  0  0
  152.1640  138.1480   89.0520 C   0  0  0  0  0  0  0  0  0  0  0  0
  150.8290  138.6650   89.1630 C   0  0  0  0  0  0  0  0  0  0  0  0
  150.2300  138.6840   87.8310 C   0  0  0  0  0  0  0  0  0  0  0  0
  150.2870  137.2230   87.2430 C   0  0  0  0  0  0  0  0  0  0  0  0
  146.4990  138.6170   91.4950 C   0  0  0  0  0  0  0  0  0  0  0  0
  145.6980  138.9980   90.4730 C   0  0  0  0  0  0  0  0  0  0  0  0
  144.3580  139.4310   90.7510 C   0  0  0  0  0  0  0  0  0  0  0  0
  143.4260  139.8440   89.8360 C   0  0  0  0  0  0  0  0  0  0  0  0
  142.1570  140.2390   90.2600 C   0  0  0  0  0  0  0  0  0  0  0  0
  141.8340  140.2130   91.6270 C   0  0  0  0  0  0  0  0  0  0  0  0
  142.7800  139.7920   92.5670 C   0  0  0  0  0  0  0  0  0  0  0  0
  142.3640  139.7600   94.3000 Cl  0  0  0  0  0  0  0  0  0  0  0  0
  144.0310  139.4030   92.1510 C   0  0  0  0  0  0  0  0  0  0  0  0
  145.5510  138.7980   92.9440 S   0  0  0  0  0  0  0  0  0  0  0  0
  148.2050  138.6310   89.3170 H   0  0  0  0  0  0  0  0  0  0  0  0
  150.4750  137.7265   91.0185 H   0  0  0  0  0  0  0  0  0  0  0  0
  150.5066  135.6464   90.0859 H   0  0  0  0  0  0  0  0  0  0  0  0
  149.0523  136.0760   89.0983 H   0  0  0  0  0  0  0  0  0  0  0  0
  152.5889  136.0670   89.2106 H   0  0  0  0  0  0  0  0  0  0  0  0
  152.7171  136.7621   87.5437 H   0  0  0  0  0  0  0  0  0  0  0  0
  152.6269  138.1230   90.0496 H   0  0  0  0  0  0  0  0  0  0  0  0
  152.7439  138.7996   88.3819 H   0  0  0  0  0  0  0  0  0  0  0  0
  150.8442  139.6763   89.5954 H   0  0  0  0  0  0  0  0  0  0  0  0
  149.1839  139.0176   87.8981 H   0  0  0  0  0  0  0  0  0  0  0  0
  150.7796  139.3776   87.1777 H   0  0  0  0  0  0  0  0  0  0  0  0
  149.2688  136.8855   86.9995 H   0  0  0  0  0  0  0  0  0  0  0  0
  150.9021  137.2178   86.3311 H   0  0  0  0  0  0  0  0  0  0  0  0
  146.0705  138.9761   89.4382 H   0  0  0  0  0  0  0  0  0  0  0  0
  143.6785  139.8642   88.7656 H   0  0  0  0  0  0  0  0  0  0  0  0
  141.4096  140.5707   89.5243 H   0  0  0  0  0  0  0  0  0  0  0  0
  140.8329  140.5251   91.9593 H   0  0  0  0  0  0  0  0  0  0  0  0
  1  2  2  0
  2  3  1  0
  3  4  1  0
  4  5  1  0
  5  6  1  0
  6  7  1  0
  7  8  1  0
  8  9  1  0
  9 10  1  0
 10 11  1  0
  2 12  1  0
 12 13  2  0
 13 14  1  0
 14 15  2  0
 15 16  1  0
 16 17  2  0
 17 18  1  0
 18 19  1  0
 18 20  2  0
 20 21  1  0
  9  4  1  0
 21 12  1  0
 11  6  1  0
 20 14  1  0
  3 22  1  0
  4 23  1  1
  5 24  1  0
  5 25  1  0
  7 26  1  0
  7 27  1  0
  8 28  1  0
  8 29  1  0
  9 30  1  0
 10 31  1  0
 10 32  1  0
 11 33  1  0
 11 34  1  0
 13 35  1  0
 15 36  1  0
 16 37  1  0
 17 38  1  0
M  END
>  <meeko>  (12)
{"is_sidechain": false}

>  <source_group>  (12)
CHRFAM7A at B face

>  <source_system>  (12)
CHRNA7_encenicline

>  <source_run>  (12)
hybrid_B_face_seed3301_ex32

>  <source_seed>  (12)
3301

>  <vina_pose_rank>  (12)
12

>  <vina_affinity_kcal_mol>  (12)
-5.4889999999999999

>  <vina_rmsd_to_crystal_angstrom>  (12)
8.5609999999999999

$$$$
CHRNA7_encenicline__hybrid_B_face_seed3301_ex32__pose13
     RDKit          3D

 38 41  0  0  0  0  0  0  0  0999 V2000
  151.5680  136.3310   87.3740 O   0  0  0  0  0  0  0  0  0  0  0  0
  150.8090  136.2140   88.2750 C   0  0  0  0  0  0  0  0  0  0  0  0
  149.5030  135.6280   88.0470 N   0  0  0  0  0  0  0  0  0  0  0  0
  149.1320  135.1840   86.6840 C   0  0  1  0  0  0  0  0  0  0  0  0
  148.0370  134.1030   86.7630 C   0  0  0  0  0  0  0  0  0  0  0  0
  146.8900  134.4920   86.0660 N   0  0  0  0  0  0  0  0  0  0  0  0
  147.1940  134.7450   84.7460 C   0  0  0  0  0  0  0  0  0  0  0  0
  148.2150  135.8370   84.6190 C   0  0  0  0  0  0  0  0  0  0  0  0
  148.6070  136.3100   85.9170 C   0  0  0  0  0  0  0  0  0  0  0  0
  147.4190  136.8170   86.6000 C   0  0  0  0  0  0  0  0  0  0  0  0
  146.3490  135.6610   86.6540 C   0  0  0  0  0  0  0  0  0  0  0  0
  151.2190  136.6820   89.6760 C   0  0  0  0  0  0  0  0  0  0  0  0
  152.2200  136.1600   90.4230 C   0  0  0  0  0  0  0  0  0  0  0  0
  152.4890  136.7070   91.7230 C   0  0  0  0  0  0  0  0  0  0  0  0
  153.4610  136.2960   92.5970 C   0  0  0  0  0  0  0  0  0  0  0  0
  153.6010  136.9280   93.8330 C   0  0  0  0  0  0  0  0  0  0  0  0
  152.7450  137.9860   94.1820 C   0  0  0  0  0  0  0  0  0  0  0  0
  151.7520  138.4110   93.2940 C   0  0  0  0  0  0  0  0  0  0  0  0
  150.6700  139.7560   93.7410 Cl  0  0  0  0  0  0  0  0  0  0  0  0
  151.6120  137.7900   92.0760 C   0  0  0  0  0  0  0  0  0  0  0  0
  150.5230  137.9610   90.6300 S   0  0  0  0  0  0  0  0  0  0  0  0
  148.8680  135.5250   88.7920 H   0  0  0  0  0  0  0  0  0  0  0  0
  150.0302  134.7792   86.1948 H   0  0  0  0  0  0  0  0  0  0  0  0
  148.4224  133.1697   86.3267 H   0  0  0  0  0  0  0  0  0  0  0  0
  147.7688  133.9562   87.8197 H   0  0  0  0  0  0  0  0  0  0  0  0
  147.5924  133.8275   84.2883 H   0  0  0  0  0  0  0  0  0  0  0  0
  146.2753  135.0689   84.2351 H   0  0  0  0  0  0  0  0  0  0  0  0
  149.0990  135.4471   84.0932 H   0  0  0  0  0  0  0  0  0  0  0  0
  147.7758  136.6717   84.0530 H   0  0  0  0  0  0  0  0  0  0  0  0
  149.3677  137.0991   85.8239 H   0  0  0  0  0  0  0  0  0  0  0  0
  147.6818  137.1288   87.6216 H   0  0  0  0  0  0  0  0  0  0  0  0
  147.0127  137.6851   86.0602 H   0  0  0  0  0  0  0  0  0  0  0  0
  146.0830  135.4557   87.7014 H   0  0  0  0  0  0  0  0  0  0  0  0
  145.4486  135.9675   86.1014 H   0  0  0  0  0  0  0  0  0  0  0  0
  152.8221  135.3240   90.0374 H   0  0  0  0  0  0  0  0  0  0  0  0
  154.1312  135.4675   92.3241 H   0  0  0  0  0  0  0  0  0  0  0  0
  154.3816  136.5979   94.5342 H   0  0  0  0  0  0  0  0  0  0  0  0
  152.8564  138.4819   95.1575 H   0  0  0  0  0  0  0  0  0  0  0  0
  1  2  2  0
  2  3  1  0
  3  4  1  0
  4  5  1  0
  5  6  1  0
  6  7  1  0
  7  8  1  0
  8  9  1  0
  9 10  1  0
 10 11  1  0
  2 12  1  0
 12 13  2  0
 13 14  1  0
 14 15  2  0
 15 16  1  0
 16 17  2  0
 17 18  1  0
 18 19  1  0
 18 20  2  0
 20 21  1  0
  9  4  1  0
 21 12  1  0
 11  6  1  0
 20 14  1  0
  3 22  1  0
  4 23  1  6
  5 24  1  0
  5 25  1  0
  7 26  1  0
  7 27  1  0
  8 28  1  0
  8 29  1  0
  9 30  1  0
 10 31  1  0
 10 32  1  0
 11 33  1  0
 11 34  1  0
 13 35  1  0
 15 36  1  0
 16 37  1  0
 17 38  1  0
M  END
>  <meeko>  (13)
{"is_sidechain": false}

>  <source_group>  (13)
CHRFAM7A at B face

>  <source_system>  (13)
CHRNA7_encenicline

>  <source_run>  (13)
hybrid_B_face_seed3301_ex32

>  <source_seed>  (13)
3301

>  <vina_pose_rank>  (13)
13

>  <vina_affinity_kcal_mol>  (13)
-5.4649999999999999

>  <vina_rmsd_to_crystal_angstrom>  (13)
8.8315999999999999

$$$$
CHRNA7_encenicline__hybrid_B_face_seed3301_ex32__pose14
     RDKit          3D

 38 41  0  0  0  0  0  0  0  0999 V2000
  148.0420  143.1650   94.7620 O   0  0  0  0  0  0  0  0  0  0  0  0
  147.0180  143.6210   94.3790 C   0  0  0  0  0  0  0  0  0  0  0  0
  147.0000  144.9280   93.7510 N   0  0  0  0  0  0  0  0  0  0  0  0
  148.2670  145.6800   93.6000 C   0  0  1  0  0  0  0  0  0  0  0  0
  148.1650  146.6460   92.4030 C   0  0  0  0  0  0  0  0  0  0  0  0
  148.3760  147.9680   92.8000 N   0  0  0  0  0  0  0  0  0  0  0  0
  149.6130  148.0990   93.3940 C   0  0  0  0  0  0  0  0  0  0  0  0
  149.7350  147.2190   94.6030 C   0  0  0  0  0  0  0  0  0  0  0  0
  148.5270  146.4680   94.8010 C   0  0  0  0  0  0  0  0  0  0  0  0
  147.4240  147.4090   94.9810 C   0  0  0  0  0  0  0  0  0  0  0  0
  147.3720  148.3560   93.7210 C   0  0  0  0  0  0  0  0  0  0  0  0
  145.7220  142.8200   94.5480 C   0  0  0  0  0  0  0  0  0  0  0  0
  144.6760  143.1650   95.3340 C   0  0  0  0  0  0  0  0  0  0  0  0
  143.5230  142.3110   95.3900 C   0  0  0  0  0  0  0  0  0  0  0  0
  142.3890  142.5170   96.1290 C   0  0  0  0  0  0  0  0  0  0  0  0
  141.3460  141.5910   96.0810 C   0  0  0  0  0  0  0  0  0  0  0  0
  141.4590  140.4470   95.2720 C   0  0  0  0  0  0  0  0  0  0  0  0
  142.6140  140.2320   94.5140 C   0  0  0  0  0  0  0  0  0  0  0  0
  142.7510  138.7800   93.4890 Cl  0  0  0  0  0  0  0  0  0  0  0  0
  143.6430  141.1420   94.5610 C   0  0  0  0  0  0  0  0  0  0  0  0
  145.2830  141.3130   93.7960 S   0  0  0  0  0  0  0  0  0  0  0  0
  146.1540  145.3120   93.4280 H   0  0  0  0  0  0  0  0  0  0  0  0
  149.0813  144.9585   93.4377 H   0  0  0  0  0  0  0  0  0  0  0  0
  148.9229  146.3710   91.6547 H   0  0  0  0  0  0  0  0  0  0  0  0
  147.1533  146.5677   91.9782 H   0  0  0  0  0  0  0  0  0  0  0  0
  150.3903  147.8193   92.6677 H   0  0  0  0  0  0  0  0  0  0  0  0
  149.7352  149.1447   93.7128 H   0  0  0  0  0  0  0  0  0  0  0  0
  150.5750  146.5231   94.4612 H   0  0  0  0  0  0  0  0  0  0  0  0
  149.9111  147.8500   95.4866 H   0  0  0  0  0  0  0  0  0  0  0  0
  148.6233  145.8111   95.6781 H   0  0  0  0  0  0  0  0  0  0  0  0
  146.4761  146.8583   95.0720 H   0  0  0  0  0  0  0  0  0  0  0  0
  147.5761  148.0017   95.8951 H   0  0  0  0  0  0  0  0  0  0  0  0
  146.3846  148.2768   93.2427 H   0  0  0  0  0  0  0  0  0  0  0  0
  147.5434  149.3961   94.0353 H   0  0  0  0  0  0  0  0  0  0  0  0
  144.7087  144.0920   95.9252 H   0  0  0  0  0  0  0  0  0  0  0  0
  142.3000  143.4129   96.7610 H   0  0  0  0  0  0  0  0  0  0  0  0
  140.4357  141.7563   96.6761 H   0  0  0  0  0  0  0  0  0  0  0  0
  140.6358  139.7183   95.2352 H   0  0  0  0  0  0  0  0  0  0  0  0
  1  2  2  0
  2  3  1  0
  3  4  1  0
  4  5  1  0
  5  6  1  0
  6  7  1  0
  7  8  1  0
  8  9  1  0
  9 10  1  0
 10 11  1  0
  2 12  1  0
 12 13  2  0
 13 14  1  0
 14 15  2  0
 15 16  1  0
 16 17  2  0
 17 18  1  0
 18 19  1  0
 18 20  2  0
 20 21  1  0
  9  4  1  0
 21 12  1  0
 11  6  1  0
 20 14  1  0
  3 22  1  0
  4 23  1  6
  5 24  1  0
  5 25  1  0
  7 26  1  0
  7 27  1  0
  8 28  1  0
  8 29  1  0
  9 30  1  0
 10 31  1  0
 10 32  1  0
 11 33  1  0
 11 34  1  0
 13 35  1  0
 15 36  1  0
 16 37  1  0
 17 38  1  0
M  END
>  <meeko>  (14)
{"is_sidechain": false}

>  <source_group>  (14)
CHRFAM7A at B face

>  <source_system>  (14)
CHRNA7_encenicline

>  <source_run>  (14)
hybrid_B_face_seed3301_ex32

>  <source_seed>  (14)
3301

>  <vina_pose_rank>  (14)
14

>  <vina_affinity_kcal_mol>  (14)
-5.3710000000000004

>  <vina_rmsd_to_crystal_angstrom>  (14)
9.5343

$$$$
CHRNA7_encenicline__hybrid_B_face_seed3301_ex32__pose15
     RDKit          3D

 38 41  0  0  0  0  0  0  0  0999 V2000
  139.8540  140.9730   87.7290 O   0  0  0  0  0  0  0  0  0  0  0  0
  140.7580  140.2110   87.7950 C   0  0  0  0  0  0  0  0  0  0  0  0
  141.0970  139.3930   86.6470 N   0  0  0  0  0  0  0  0  0  0  0  0
  140.3020  139.5180   85.4040 C   0  0  1  0  0  0  0  0  0  0  0  0
  141.2390  139.7730   84.2060 C   0  0  0  0  0  0  0  0  0  0  0  0
  141.0940  138.7820   83.2310 N   0  0  0  0  0  0  0  0  0  0  0  0
  139.7880  138.7270   82.7930 C   0  0  0  0  0  0  0  0  0  0  0  0
  138.8450  138.4210   83.9190 C   0  0  0  0  0  0  0  0  0  0  0  0
  139.5670  138.2820   85.1530 C   0  0  0  0  0  0  0  0  0  0  0  0
  140.5310  137.1960   85.0030 C   0  0  0  0  0  0  0  0  0  0  0  0
  141.4580  137.5250   83.7720 C   0  0  0  0  0  0  0  0  0  0  0  0
  141.5630  140.1020   89.0950 C   0  0  0  0  0  0  0  0  0  0  0  0
  142.8690  139.7610   89.1910 C   0  0  0  0  0  0  0  0  0  0  0  0
  143.4910  139.7030   90.4830 C   0  0  0  0  0  0  0  0  0  0  0  0
  144.7950  139.3790   90.7490 C   0  0  0  0  0  0  0  0  0  0  0  0
  145.2570  139.3630   92.0650 C   0  0  0  0  0  0  0  0  0  0  0  0
  144.3830  139.6800   93.1200 C   0  0  0  0  0  0  0  0  0  0  0  0
  143.0510  140.0120   92.8550 C   0  0  0  0  0  0  0  0  0  0  0  0
  141.9480  140.4150   94.1970 Cl  0  0  0  0  0  0  0  0  0  0  0  0
  142.5940  140.0280   91.5590 C   0  0  0  0  0  0  0  0  0  0  0  0
  141.0180  140.3790   90.7250 S   0  0  0  0  0  0  0  0  0  0  0  0
  141.8480  138.7590   86.6940 H   0  0  0  0  0  0  0  0  0  0  0  0
  139.6002  140.3565   85.5237 H   0  0  0  0  0  0  0  0  0  0  0  0
  140.9971  140.7503   83.7630 H   0  0  0  0  0  0  0  0  0  0  0  0
  142.2780  139.7572   84.5669 H   0  0  0  0  0  0  0  0  0  0  0  0
  139.5169  139.6981   82.3531 H   0  0  0  0  0  0  0  0  0  0  0  0
  139.7071  137.9237   82.0459 H   0  0  0  0  0  0  0  0  0  0  0  0
  138.1173  139.2403   84.0151 H   0  0  0  0  0  0  0  0  0  0  0  0
  138.3244  137.4766   83.7018 H   0  0  0  0  0  0  0  0  0  0  0  0
  138.8738  138.0728   85.9811 H   0  0  0  0  0  0  0  0  0  0  0  0
  141.1400  137.1104   85.9150 H   0  0  0  0  0  0  0  0  0  0  0  0
  140.0065  136.2431   84.8389 H   0  0  0  0  0  0  0  0  0  0  0  0
  142.5071  137.5571   84.1010 H   0  0  0  0  0  0  0  0  0  0  0  0
  141.3388  136.7464   83.0042 H   0  0  0  0  0  0  0  0  0  0  0  0
  143.4495  139.5300   88.2856 H   0  0  0  0  0  0  0  0  0  0  0  0
  145.4787  139.1311   89.9237 H   0  0  0  0  0  0  0  0  0  0  0  0
  146.3044  139.1026   92.2774 H   0  0  0  0  0  0  0  0  0  0  0  0
  144.7486  139.6667   94.1574 H   0  0  0  0  0  0  0  0  0  0  0  0
  1  2  2  0
  2  3  1  0
  3  4  1  0
  4  5  1  0
  5  6  1  0
  6  7  1  0
  7  8  1  0
  8  9  1  0
  9 10  1  0
 10 11  1  0
  2 12  1  0
 12 13  2  0
 13 14  1  0
 14 15  2  0
 15 16  1  0
 16 17  2  0
 17 18  1  0
 18 19  1  0
 18 20  2  0
 20 21  1  0
  9  4  1  0
 21 12  1  0
 11  6  1  0
 20 14  1  0
  3 22  1  0
  4 23  1  1
  5 24  1  0
  5 25  1  0
  7 26  1  0
  7 27  1  0
  8 28  1  0
  8 29  1  0
  9 30  1  0
 10 31  1  0
 10 32  1  0
 11 33  1  0
 11 34  1  0
 13 35  1  0
 15 36  1  0
 16 37  1  0
 17 38  1  0
M  END
>  <meeko>  (15)
{"is_sidechain": false}

>  <source_group>  (15)
CHRFAM7A at B face

>  <source_system>  (15)
CHRNA7_encenicline

>  <source_run>  (15)
hybrid_B_face_seed3301_ex32

>  <source_seed>  (15)
3301

>  <vina_pose_rank>  (15)
15

>  <vina_affinity_kcal_mol>  (15)
-5.3449999999999998

>  <vina_rmsd_to_crystal_angstrom>  (15)
5.1578999999999997

$$$$
CHRNA7_encenicline__hybrid_B_face_seed3301_ex32__pose16
     RDKit          3D

 38 41  0  0  0  0  0  0  0  0999 V2000
  148.3210  137.7220   92.1920 O   0  0  0  0  0  0  0  0  0  0  0  0
  148.0430  138.2080   91.1480 C   0  0  0  0  0  0  0  0  0  0  0  0
  146.6760  138.6100   90.8820 N   0  0  0  0  0  0  0  0  0  0  0  0
  145.6410  138.4030   91.9200 C   0  0  1  0  0  0  0  0  0  0  0  0
  145.4610  139.6920   92.7470 C   0  0  0  0  0  0  0  0  0  0  0  0
  144.1440  140.1540   92.6850 N   0  0  0  0  0  0  0  0  0  0  0  0
  143.2750  139.1880   93.1410 C   0  0  0  0  0  0  0  0  0  0  0  0
  143.3720  137.9330   92.3250 C   0  0  0  0  0  0  0  0  0  0  0  0
  144.3610  138.0810   91.2940 C   0  0  0  0  0  0  0  0  0  0  0  0
  143.9730  139.2010   90.4400 C   0  0  0  0  0  0  0  0  0  0  0  0
  143.8170  140.4820   91.3460 C   0  0  0  0  0  0  0  0  0  0  0  0
  149.1350  138.4100   90.0910 C   0  0  0  0  0  0  0  0  0  0  0  0
  149.0080  138.1670   88.7660 C   0  0  0  0  0  0  0  0  0  0  0  0
  150.1230  138.4080   87.8950 C   0  0  0  0  0  0  0  0  0  0  0  0
  150.1570  138.2160   86.5390 C   0  0  0  0  0  0  0  0  0  0  0  0
  151.3210  138.4940   85.8230 C   0  0  0  0  0  0  0  0  0  0  0  0
  152.4610  138.9720   86.4920 C   0  0  0  0  0  0  0  0  0  0  0  0
  152.4330  139.1710   87.8760 C   0  0  0  0  0  0  0  0  0  0  0  0
  153.8800  139.7800   88.7200 Cl  0  0  0  0  0  0  0  0  0  0  0  0
  151.2870  138.8970   88.5840 C   0  0  0  0  0  0  0  0  0  0  0  0
  150.7610  138.9850   90.3220 S   0  0  0  0  0  0  0  0  0  0  0  0
  146.4370  139.0160   90.0180 H   0  0  0  0  0  0  0  0  0  0  0  0
  145.9628  137.5758   92.5698 H   0  0  0  0  0  0  0  0  0  0  0  0
  145.7189  139.4839   93.7959 H   0  0  0  0  0  0  0  0  0  0  0  0
  146.1213  140.4671   92.3308 H   0  0  0  0  0  0  0  0  0  0  0  0
  143.5183  138.9536   94.1878 H   0  0  0  0  0  0  0  0  0  0  0  0
  142.2498  139.5774   93.0554 H   0  0  0  0  0  0  0  0  0  0  0  0
  143.6540  137.0956   92.9802 H   0  0  0  0  0  0  0  0  0  0  0  0
  142.3961  137.7352   91.8574 H   0  0  0  0  0  0  0  0  0  0  0  0
  144.4426  137.1551   90.7057 H   0  0  0  0  0  0  0  0  0  0  0  0
  144.7485  139.3752   89.6795 H   0  0  0  0  0  0  0  0  0  0  0  0
  143.0238  138.9787   89.9305 H   0  0  0  0  0  0  0  0  0  0  0  0
  144.4936  141.2709   90.9857 H   0  0  0  0  0  0  0  0  0  0  0  0
  142.7784  140.8411   91.2988 H   0  0  0  0  0  0  0  0  0  0  0  0
  148.0585  137.7881   88.3599 H   0  0  0  0  0  0  0  0  0  0  0  0
  149.2653  137.8422   86.0145 H   0  0  0  0  0  0  0  0  0  0  0  0
  151.3470  138.3391   84.7343 H   0  0  0  0  0  0  0  0  0  0  0  0
  153.3781  139.1902   85.9252 H   0  0  0  0  0  0  0  0  0  0  0  0
  1  2  2  0
  2  3  1  0
  3  4  1  0
  4  5  1  0
  5  6  1  0
  6  7  1  0
  7  8  1  0
  8  9  1  0
  9 10  1  0
 10 11  1  0
  2 12  1  0
 12 13  2  0
 13 14  1  0
 14 15  2  0
 15 16  1  0
 16 17  2  0
 17 18  1  0
 18 19  1  0
 18 20  2  0
 20 21  1  0
  9  4  1  0
 21 12  1  0
 11  6  1  0
 20 14  1  0
  3 22  1  0
  4 23  1  1
  5 24  1  0
  5 25  1  0
  7 26  1  0
  7 27  1  0
  8 28  1  0
  8 29  1  0
  9 30  1  0
 10 31  1  0
 10 32  1  0
 11 33  1  0
 11 34  1  0
 13 35  1  0
 15 36  1  0
 16 37  1  0
 17 38  1  0
M  END
>  <meeko>  (16)
{"is_sidechain": false}

>  <source_group>  (16)
CHRFAM7A at B face

>  <source_system>  (16)
CHRNA7_encenicline

>  <source_run>  (16)
hybrid_B_face_seed3301_ex32

>  <source_seed>  (16)
3301

>  <vina_pose_rank>  (16)
16

>  <vina_affinity_kcal_mol>  (16)
-5.327

>  <vina_rmsd_to_crystal_angstrom>  (16)
6.6890000000000001

$$$$
CHRNA7_encenicline__hybrid_B_face_seed3301_ex32__pose17
     RDKit          3D

 38 41  0  0  0  0  0  0  0  0999 V2000
  145.5830  142.1210   93.6000 O   0  0  0  0  0  0  0  0  0  0  0  0
  145.3770  142.7620   94.5740 C   0  0  0  0  0  0  0  0  0  0  0  0
  146.3750  143.7040   95.0410 N   0  0  0  0  0  0  0  0  0  0  0  0
  147.6450  143.8490   94.2930 C   0  0  1  0  0  0  0  0  0  0  0  0
  147.6420  145.1730   93.5040 C   0  0  0  0  0  0  0  0  0  0  0  0
  148.7160  145.9870   93.8760 N   0  0  0  0  0  0  0  0  0  0  0  0
  149.9090  145.3300   93.6710 C   0  0  0  0  0  0  0  0  0  0  0  0
  149.9810  144.0620   94.4690 C   0  0  0  0  0  0  0  0  0  0  0  0
  148.7720  143.8740   95.2210 C   0  0  0  0  0  0  0  0  0  0  0  0
  148.6050  145.0160   96.1170 C   0  0  0  0  0  0  0  0  0  0  0  0
  148.6010  146.3300   95.2460 C   0  0  0  0  0  0  0  0  0  0  0  0
  144.0530  142.5920   95.3280 C   0  0  0  0  0  0  0  0  0  0  0  0
  143.6330  143.3460   96.3700 C   0  0  0  0  0  0  0  0  0  0  0  0
  142.3630  143.0670   96.9760 C   0  0  0  0  0  0  0  0  0  0  0  0
  141.7960  143.7340   98.0300 C   0  0  0  0  0  0  0  0  0  0  0  0
  140.5470  143.3440   98.5130 C   0  0  0  0  0  0  0  0  0  0  0  0
  139.8690  142.2660   97.9190 C   0  0  0  0  0  0  0  0  0  0  0  0
  140.4410  141.5820   96.8420 C   0  0  0  0  0  0  0  0  0  0  0  0
  139.5750  140.2170   96.0900 Cl  0  0  0  0  0  0  0  0  0  0  0  0
  141.6710  141.9650   96.3640 C   0  0  0  0  0  0  0  0  0  0  0  0
  142.7960  141.4220   95.0420 S   0  0  0  0  0  0  0  0  0  0  0  0
  146.2110  144.2430   95.8480 H   0  0  0  0  0  0  0  0  0  0  0  0
  147.7410  142.9966   93.6044 H   0  0  0  0  0  0  0  0  0  0  0  0
  147.7163  144.9502   92.4294 H   0  0  0  0  0  0  0  0  0  0  0  0
  146.7069  145.7080   93.7260 H   0  0  0  0  0  0  0  0  0  0  0  0
  150.0040  145.0861   92.6026 H   0  0  0  0  0  0  0  0  0  0  0  0
  150.7272  145.9897   93.9957 H   0  0  0  0  0  0  0  0  0  0  0  0
  150.1187  143.2111   93.7856 H   0  0  0  0  0  0  0  0  0  0  0  0
  150.8286  144.1275   95.1670 H   0  0  0  0  0  0  0  0  0  0  0  0
  148.8185  142.9357   95.7932 H   0  0  0  0  0  0  0  0  0  0  0  0
  147.6527  144.9267   96.6603 H   0  0  0  0  0  0  0  0  0  0  0  0
  149.4259  145.0479   96.8485 H   0  0  0  0  0  0  0  0  0  0  0  0
  147.6603  146.8760   95.4099 H   0  0  0  0  0  0  0  0  0  0  0  0
  149.4492  146.9667   95.5378 H   0  0  0  0  0  0  0  0  0  0  0  0
  144.2602  144.1662   96.7494 H   0  0  0  0  0  0  0  0  0  0  0  0
  142.3263  144.5778   98.4957 H   0  0  0  0  0  0  0  0  0  0  0  0
  140.0926  143.8804   99.3591 H   0  0  0  0  0  0  0  0  0  0  0  0
  138.8848  141.9592   98.3027 H   0  0  0  0  0  0  0  0  0  0  0  0
  1  2  2  0
  2  3  1  0
  3  4  1  0
  4  5  1  0
  5  6  1  0
  6  7  1  0
  7  8  1  0
  8  9  1  0
  9 10  1  0
 10 11  1  0
  2 12  1  0
 12 13  2  0
 13 14  1  0
 14 15  2  0
 15 16  1  0
 16 17  2  0
 17 18  1  0
 18 19  1  0
 18 20  2  0
 20 21  1  0
  9  4  1  0
 21 12  1  0
 11  6  1  0
 20 14  1  0
  3 22  1  0
  4 23  1  6
  5 24  1  0
  5 25  1  0
  7 26  1  0
  7 27  1  0
  8 28  1  0
  8 29  1  0
  9 30  1  0
 10 31  1  0
 10 32  1  0
 11 33  1  0
 11 34  1  0
 13 35  1  0
 15 36  1  0
 16 37  1  0
 17 38  1  0
M  END
>  <meeko>  (17)
{"is_sidechain": false}

>  <source_group>  (17)
CHRFAM7A at B face

>  <source_system>  (17)
CHRNA7_encenicline

>  <source_run>  (17)
hybrid_B_face_seed3301_ex32

>  <source_seed>  (17)
3301

>  <vina_pose_rank>  (17)
17

>  <vina_affinity_kcal_mol>  (17)
-5.3120000000000003

>  <vina_rmsd_to_crystal_angstrom>  (17)
10.162800000000001

$$$$
CHRNA7_encenicline__hybrid_B_face_seed3301_ex32__pose18
     RDKit          3D

 38 41  0  0  0  0  0  0  0  0999 V2000
  151.7340  136.3560   87.5040 O   0  0  0  0  0  0  0  0  0  0  0  0
  150.9450  136.3570   88.3870 C   0  0  0  0  0  0  0  0  0  0  0  0
  149.6070  135.8460   88.1580 N   0  0  0  0  0  0  0  0  0  0  0  0
  149.2430  135.3320   86.8180 C   0  0  1  0  0  0  0  0  0  0  0  0
  148.1560  134.2480   86.9490 C   0  0  0  0  0  0  0  0  0  0  0  0
  147.0080  134.5930   86.2310 N   0  0  0  0  0  0  0  0  0  0  0  0
  147.3140  134.7820   84.9000 C   0  0  0  0  0  0  0  0  0  0  0  0
  148.3270  135.8740   84.7210 C   0  0  0  0  0  0  0  0  0  0  0  0
  148.7120  136.4140   85.9950 C   0  0  0  0  0  0  0  0  0  0  0  0
  147.5190  136.9460   86.6490 C   0  0  0  0  0  0  0  0  0  0  0  0
  146.4570  135.7870   86.7580 C   0  0  0  0  0  0  0  0  0  0  0  0
  151.3490  136.8950   89.7640 C   0  0  0  0  0  0  0  0  0  0  0  0
  150.9590  138.0750   90.2980 C   0  0  0  0  0  0  0  0  0  0  0  0
  151.4190  138.4450   91.6060 C   0  0  0  0  0  0  0  0  0  0  0  0
  151.1170  139.5960   92.2840 C   0  0  0  0  0  0  0  0  0  0  0  0
  151.6450  139.8170   93.5570 C   0  0  0  0  0  0  0  0  0  0  0  0
  152.4880  138.8580   94.1430 C   0  0  0  0  0  0  0  0  0  0  0  0
  152.8000  137.6800   93.4570 C   0  0  0  0  0  0  0  0  0  0  0  0
  153.8690  136.4660   94.2070 Cl  0  0  0  0  0  0  0  0  0  0  0  0
  152.2810  137.4600   92.2040 C   0  0  0  0  0  0  0  0  0  0  0  0
  152.3800  136.1470   90.9510 S   0  0  0  0  0  0  0  0  0  0  0  0
  148.9470  135.8410   88.8870 H   0  0  0  0  0  0  0  0  0  0  0  0
  150.1453  134.9102   86.3511 H   0  0  0  0  0  0  0  0  0  0  0  0
  148.5494  133.2969   86.5609 H   0  0  0  0  0  0  0  0  0  0  0  0
  147.8864  134.1522   88.0111 H   0  0  0  0  0  0  0  0  0  0  0  0
  147.7206  133.8458   84.4898 H   0  0  0  0  0  0  0  0  0  0  0  0
  146.3943  135.0728   84.3712 H   0  0  0  0  0  0  0  0  0  0  0  0
  149.2153  135.4652   84.2173 H   0  0  0  0  0  0  0  0  0  0  0  0
  147.8831  136.6761   84.1131 H   0  0  0  0  0  0  0  0  0  0  0  0
  149.4672  137.2030   85.8645 H   0  0  0  0  0  0  0  0  0  0  0  0
  147.7769  137.3101   87.6544 H   0  0  0  0  0  0  0  0  0  0  0  0
  147.1082  137.7833   86.0657 H   0  0  0  0  0  0  0  0  0  0  0  0
  146.1890  135.6329   87.8137 H   0  0  0  0  0  0  0  0  0  0  0  0
  145.5564  136.0590   86.1880 H   0  0  0  0  0  0  0  0  0  0  0  0
  150.2943  138.7459   89.7340 H   0  0  0  0  0  0  0  0  0  0  0  0
  150.4576  140.3471   91.8248 H   0  0  0  0  0  0  0  0  0  0  0  0
  151.4012  140.7414   94.1011 H   0  0  0  0  0  0  0  0  0  0  0  0
  152.9044  139.0345   95.1457 H   0  0  0  0  0  0  0  0  0  0  0  0
  1  2  2  0
  2  3  1  0
  3  4  1  0
  4  5  1  0
  5  6  1  0
  6  7  1  0
  7  8  1  0
  8  9  1  0
  9 10  1  0
 10 11  1  0
  2 12  1  0
 12 13  2  0
 13 14  1  0
 14 15  2  0
 15 16  1  0
 16 17  2  0
 17 18  1  0
 18 19  1  0
 18 20  2  0
 20 21  1  0
  9  4  1  0
 21 12  1  0
 11  6  1  0
 20 14  1  0
  3 22  1  0
  4 23  1  6
  5 24  1  0
  5 25  1  0
  7 26  1  0
  7 27  1  0
  8 28  1  0
  8 29  1  0
  9 30  1  0
 10 31  1  0
 10 32  1  0
 11 33  1  0
 11 34  1  0
 13 35  1  0
 15 36  1  0
 16 37  1  0
 17 38  1  0
M  END
>  <meeko>  (18)
{"is_sidechain": false}

>  <source_group>  (18)
CHRFAM7A at B face

>  <source_system>  (18)
CHRNA7_encenicline

>  <source_run>  (18)
hybrid_B_face_seed3301_ex32

>  <source_seed>  (18)
3301

>  <vina_pose_rank>  (18)
18

>  <vina_affinity_kcal_mol>  (18)
-5.2770000000000001

>  <vina_rmsd_to_crystal_angstrom>  (18)
8.8583999999999996

$$$$
CHRNA7_encenicline__hybrid_B_face_seed3301_ex32__pose19
     RDKit          3D

 38 41  0  0  0  0  0  0  0  0999 V2000
  149.9990  135.1220   89.8650 O   0  0  0  0  0  0  0  0  0  0  0  0
  150.1800  136.2720   89.6480 C   0  0  0  0  0  0  0  0  0  0  0  0
  149.8680  136.8160   88.3400 N   0  0  0  0  0  0  0  0  0  0  0  0
  149.3280  135.9220   87.2900 C   0  0  1  0  0  0  0  0  0  0  0  0
  147.9660  136.4530   86.7980 C   0  0  0  0  0  0  0  0  0  0  0  0
  147.9880  136.7080   85.4250 N   0  0  0  0  0  0  0  0  0  0  0  0
  148.3160  135.5640   84.7300 C   0  0  0  0  0  0  0  0  0  0  0  0
  149.6650  135.0450   85.1340 C   0  0  0  0  0  0  0  0  0  0  0  0
  150.2390  135.8820   86.1500 C   0  0  0  0  0  0  0  0  0  0  0  0
  150.3670  137.2350   85.6160 C   0  0  0  0  0  0  0  0  0  0  0  0
  148.9430  137.7160   85.1430 C   0  0  0  0  0  0  0  0  0  0  0  0
  150.7400  137.1730   90.7530 C   0  0  0  0  0  0  0  0  0  0  0  0
  151.2970  136.7510   91.9120 C   0  0  0  0  0  0  0  0  0  0  0  0
  151.7820  137.7180   92.8550 C   0  0  0  0  0  0  0  0  0  0  0  0
  152.3690  137.4570   94.0650 C   0  0  0  0  0  0  0  0  0  0  0  0
  152.7910  138.5090   94.8790 C   0  0  0  0  0  0  0  0  0  0  0  0
  152.6120  139.8380   94.4580 C   0  0  0  0  0  0  0  0  0  0  0  0
  152.0140  140.1110   93.2240 C   0  0  0  0  0  0  0  0  0  0  0  0
  151.7920  141.7990   92.6940 Cl  0  0  0  0  0  0  0  0  0  0  0  0
  151.5980  139.0770   92.4210 C   0  0  0  0  0  0  0  0  0  0  0  0
  150.7990  138.9120   90.7960 S   0  0  0  0  0  0  0  0  0  0  0  0
  150.0130  137.7700   88.1520 H   0  0  0  0  0  0  0  0  0  0  0  0
  149.2125  134.9151   87.7176 H   0  0  0  0  0  0  0  0  0  0  0  0
  147.1905  135.7025   87.0109 H   0  0  0  0  0  0  0  0  0  0  0  0
  147.7498  137.3950   87.3232 H   0  0  0  0  0  0  0  0  0  0  0  0
  147.5597  134.7919   84.9345 H   0  0  0  0  0  0  0  0  0  0  0  0
  148.3458  135.8073   83.6577 H   0  0  0  0  0  0  0  0  0  0  0  0
  149.5579  134.0223   85.5246 H   0  0  0  0  0  0  0  0  0  0  0  0
  150.3260  135.0462   84.2548 H   0  0  0  0  0  0  0  0  0  0  0  0
  151.2210  135.4926   86.4566 H   0  0  0  0  0  0  0  0  0  0  0  0
  150.7468  137.9092   86.3978 H   0  0  0  0  0  0  0  0  0  0  0  0
  151.0707  137.2442   84.7706 H   0  0  0  0  0  0  0  0  0  0  0  0
  148.6713  138.6386   85.6768 H   0  0  0  0  0  0  0  0  0  0  0  0
  148.9620  137.9116   84.0607 H   0  0  0  0  0  0  0  0  0  0  0  0
  151.3773  135.6757   92.1294 H   0  0  0  0  0  0  0  0  0  0  0  0
  152.5079  136.4170   94.3953 H   0  0  0  0  0  0  0  0  0  0  0  0
  153.2635  138.2982   95.8497 H   0  0  0  0  0  0  0  0  0  0  0  0
  152.9435  140.6662   95.1016 H   0  0  0  0  0  0  0  0  0  0  0  0
  1  2  2  0
  2  3  1  0
  3  4  1  0
  4  5  1  0
  5  6  1  0
  6  7  1  0
  7  8  1  0
  8  9  1  0
  9 10  1  0
 10 11  1  0
  2 12  1  0
 12 13  2  0
 13 14  1  0
 14 15  2  0
 15 16  1  0
 16 17  2  0
 17 18  1  0
 18 19  1  0
 18 20  2  0
 20 21  1  0
  9  4  1  0
 21 12  1  0
 11  6  1  0
 20 14  1  0
  3 22  1  0
  4 23  1  1
  5 24  1  0
  5 25  1  0
  7 26  1  0
  7 27  1  0
  8 28  1  0
  8 29  1  0
  9 30  1  0
 10 31  1  0
 10 32  1  0
 11 33  1  0
 11 34  1  0
 13 35  1  0
 15 36  1  0
 16 37  1  0
 17 38  1  0
M  END
>  <meeko>  (19)
{"is_sidechain": false}

>  <source_group>  (19)
CHRFAM7A at B face

>  <source_system>  (19)
CHRNA7_encenicline

>  <source_run>  (19)
hybrid_B_face_seed3301_ex32

>  <source_seed>  (19)
3301

>  <vina_pose_rank>  (19)
19

>  <vina_affinity_kcal_mol>  (19)
-4.9249999999999998

>  <vina_rmsd_to_crystal_angstrom>  (19)
9.2117000000000004

$$$$
