CHRNA7_encenicline__hybrid_B_face_seed3301_ex32__pose01


 22 25  0  0  0  0  0  0  0  0999 V2000
  143.6520  139.3520   95.6660 O   0  0  0  0  0  0  0  0  0  0  0  0
  142.7050  139.7210   95.0590 C   0  0  0  0  0  0  0  0  0  0  0  0
  142.6240  139.4770   93.6320 N   0  0  0  0  0  0  0  0  0  0  0  0
  141.8400  139.7790   93.1210 H   0  0  0  0  0  0  0  0  0  0  0  0
  141.5730  140.4500   95.7900 C   0  0  0  0  0  0  0  0  0  0  0  0
  140.2880  140.0350   95.8740 C   0  0  0  0  0  0  0  0  0  0  0  0
  139.3360  140.8270   96.5990 C   0  0  0  0  0  0  0  0  0  0  0  0
  138.0070  140.5460   96.7780 C   0  0  0  0  0  0  0  0  0  0  0  0
  137.2010  141.4180   97.5110 C   0  0  0  0  0  0  0  0  0  0  0  0
  137.7530  142.5850   98.0660 C   0  0  0  0  0  0  0  0  0  0  0  0
  139.1090  142.8770   97.8880 C   0  0  0  0  0  0  0  0  0  0  0  0
  139.8040  144.3580   98.5970 Cl  0  0  0  0  0  0  0  0  0  0  0  0
  139.9040  142.0200   97.1660 C   0  0  0  0  0  0  0  0  0  0  0  0
  141.6520  141.9500   96.6700 S   0  0  0  0  0  0  0  0  0  0  0  0
  143.7320  138.7700   92.9500 C   0  0  0  0  0  0  0  0  0  0  0  0
  143.3110  138.3920   91.5160 C   0  0  0  0  0  0  0  0  0  0  0  0
  144.1730  138.9540   90.5710 N   0  0  0  0  0  0  0  0  0  0  0  0
  145.4680  138.5390   90.7960 C   0  0  0  0  0  0  0  0  0  0  0  0
  145.9420  138.9390   92.1620 C   0  0  0  0  0  0  0  0  0  0  0  0
  144.9040  139.6380   92.8680 C   0  0  0  0  0  0  0  0  0  0  0  0
  144.5430  140.8260   92.0990 C   0  0  0  0  0  0  0  0  0  0  0  0
  144.1150  140.3670   90.6530 C   0  0  0  0  0  0  0  0  0  0  0  0
  1  2  2  0
  2  3  1  0
  3 15  1  0
 15 16  1  0
 16 17  1  0
 17 18  1  0
 18 19  1  0
 19 20  1  0
 20 21  1  0
 21 22  1  0
  2  5  1  0
  5  6  2  0
  6  7  1  0
  7  8  2  0
  8  9  1  0
  9 10  2  0
 10 11  1  0
 11 12  1  0
 11 13  2  0
 13 14  1  0
 20 15  1  0
 14  5  1  0
 22 17  1  0
 13  7  1  0
  3  4  1  0
M  END
> <meeko>
{"is_sidechain": false}

> <source_group>
CHRFAM7A at B face

> <source_system>
CHRNA7_encenicline

> <source_run>
hybrid_B_face_seed3301_ex32

> <source_seed>
3301

> <vina_pose_rank>
1

> <vina_affinity_kcal_mol>
-6.9269999999999996

> <vina_rmsd_to_crystal_angstrom>
8.3457000000000008

> <minimizedAffinity>
-6.92557

> <CNNscore>
0.0673885494

> <CNNaffinity>
4.0121312141

> <CNN_VS>
0.2703717053

> <CNNaffinity_variance>
1.9657354355

$$$$
CHRNA7_encenicline__hybrid_B_face_seed3301_ex32__pose02


 22 25  0  0  0  0  0  0  0  0999 V2000
  146.4710  144.6040   93.6740 O   0  0  0  0  0  0  0  0  0  0  0  0
  146.6060  143.5860   94.2640 C   0  0  0  0  0  0  0  0  0  0  0  0
  147.8980  143.2440   94.8250 N   0  0  0  0  0  0  0  0  0  0  0  0
  148.0180  142.4010   95.3180 H   0  0  0  0  0  0  0  0  0  0  0  0
  145.4100  142.6420   94.4290 C   0  0  0  0  0  0  0  0  0  0  0  0
  144.3440  142.8490   95.2370 C   0  0  0  0  0  0  0  0  0  0  0  0
  143.2950  141.8710   95.2850 C   0  0  0  0  0  0  0  0  0  0  0  0
  142.1560  141.9320   96.0440 C   0  0  0  0  0  0  0  0  0  0  0  0
  141.2210  140.8970   95.9850 C   0  0  0  0  0  0  0  0  0  0  0  0
  141.4490  139.7920   95.1470 C   0  0  0  0  0  0  0  0  0  0  0  0
  142.6090  139.7250   94.3690 C   0  0  0  0  0  0  0  0  0  0  0  0
  142.8910  138.3210   93.3070 Cl  0  0  0  0  0  0  0  0  0  0  0  0
  143.5300  140.7430   94.4260 C   0  0  0  0  0  0  0  0  0  0  0  0
  145.1300  141.1140   93.6450 S   0  0  0  0  0  0  0  0  0  0  0  0
  149.0370  144.1740   94.6500 C   0  0  0  0  0  0  0  0  0  0  0  0
  149.4460  144.7660   96.0140 C   0  0  0  0  0  0  0  0  0  0  0  0
  150.7810  144.4800   96.3110 N   0  0  0  0  0  0  0  0  0  0  0  0
  151.6070  144.9760   95.3260 C   0  0  0  0  0  0  0  0  0  0  0  0
  151.2840  144.3790   93.9880 C   0  0  0  0  0  0  0  0  0  0  0  0
  150.1860  143.4600   94.1010 C   0  0  0  0  0  0  0  0  0  0  0  0
  150.5630  142.4050   95.0380 C   0  0  0  0  0  0  0  0  0  0  0  0
  150.9570  143.0780   96.4080 C   0  0  0  0  0  0  0  0  0  0  0  0
  1  2  2  0
  2  3  1  0
  3 15  1  0
 15 16  1  0
 16 17  1  0
 17 18  1  0
 18 19  1  0
 19 20  1  0
 20 21  1  0
 21 22  1  0
  2  5  1  0
  5  6  2  0
  6  7  1  0
  7  8  2  0
  8  9  1  0
  9 10  2  0
 10 11  1  0
 11 12  1  0
 11 13  2  0
 13 14  1  0
 20 15  1  0
 14  5  1  0
 22 17  1  0
 13  7  1  0
  3  4  1  0
M  END
> <meeko>
{"is_sidechain": false}

> <source_group>
CHRFAM7A at B face

> <source_system>
CHRNA7_encenicline

> <source_run>
hybrid_B_face_seed3301_ex32

> <source_seed>
3301

> <vina_pose_rank>
2

> <vina_affinity_kcal_mol>
-6.0149999999999997

> <vina_rmsd_to_crystal_angstrom>
9.8912999999999993

> <minimizedAffinity>
-5.81565

> <CNNscore>
0.0564996377

> <CNNaffinity>
3.6298418045

> <CNN_VS>
0.2050847411

> <CNNaffinity_variance>
1.2497965097

$$$$
CHRNA7_encenicline__hybrid_B_face_seed3301_ex32__pose03


 22 25  0  0  0  0  0  0  0  0999 V2000
  146.7890  144.2240   93.4910 O   0  0  0  0  0  0  0  0  0  0  0  0
  146.3030  143.9190   94.5270 C   0  0  0  0  0  0  0  0  0  0  0  0
  146.7170  144.5910   95.7430 N   0  0  0  0  0  0  0  0  0  0  0  0
  146.3160  144.3450   96.6070 H   0  0  0  0  0  0  0  0  0  0  0  0
  145.2360  142.8190   94.5680 C   0  0  0  0  0  0  0  0  0  0  0  0
  144.1340  142.8150   95.3530 C   0  0  0  0  0  0  0  0  0  0  0  0
  143.2190  141.7110   95.2800 C   0  0  0  0  0  0  0  0  0  0  0  0
  142.0650  141.5580   96.0010 C   0  0  0  0  0  0  0  0  0  0  0  0
  141.2750  140.4220   95.8210 C   0  0  0  0  0  0  0  0  0  0  0  0
  141.6640  139.4340   94.9000 C   0  0  0  0  0  0  0  0  0  0  0  0
  142.8410  139.5860   94.1600 C   0  0  0  0  0  0  0  0  0  0  0  0
  143.3280  138.3310   92.9910 Cl  0  0  0  0  0  0  0  0  0  0  0  0
  143.6210  140.7030   94.3360 C   0  0  0  0  0  0  0  0  0  0  0  0
  145.1760  141.3440   93.6460 S   0  0  0  0  0  0  0  0  0  0  0  0
  147.7490  145.6500   95.6740 C   0  0  0  0  0  0  0  0  0  0  0  0
  147.0770  147.0320   95.5460 C   0  0  0  0  0  0  0  0  0  0  0  0
  147.4480  147.8740   96.5970 N   0  0  0  0  0  0  0  0  0  0  0  0
  148.8170  148.0280   96.6280 C   0  0  0  0  0  0  0  0  0  0  0  0
  149.5120  146.7120   96.8130 C   0  0  0  0  0  0  0  0  0  0  0  0
  148.5530  145.6460   96.8930 C   0  0  0  0  0  0  0  0  0  0  0  0
  147.6690  145.9040   98.0270 C   0  0  0  0  0  0  0  0  0  0  0  0
  147.0110  147.3230   97.8260 C   0  0  0  0  0  0  0  0  0  0  0  0
  1  2  2  0
  2  3  1  0
  3 15  1  0
 15 16  1  0
 16 17  1  0
 17 18  1  0
 18 19  1  0
 19 20  1  0
 20 21  1  0
 21 22  1  0
  2  5  1  0
  5  6  2  0
  6  7  1  0
  7  8  2  0
  8  9  1  0
  9 10  2  0
 10 11  1  0
 11 12  1  0
 11 13  2  0
 13 14  1  0
 20 15  1  0
 14  5  1  0
 22 17  1  0
 13  7  1  0
  3  4  1  0
M  END
> <meeko>
{"is_sidechain": false}

> <source_group>
CHRFAM7A at B face

> <source_system>
CHRNA7_encenicline

> <source_run>
hybrid_B_face_seed3301_ex32

> <source_seed>
3301

> <vina_pose_rank>
3

> <vina_affinity_kcal_mol>
-5.883

> <vina_rmsd_to_crystal_angstrom>
9.7799999999999994

> <minimizedAffinity>
-5.68861

> <CNNscore>
0.0723969191

> <CNNaffinity>
3.6903858185

> <CNN_VS>
0.2671725750

> <CNNaffinity_variance>
0.8955073357

$$$$
CHRNA7_encenicline__hybrid_B_face_seed3301_ex32__pose04


 22 25  0  0  0  0  0  0  0  0999 V2000
  140.9610  141.1760   89.1350 O   0  0  0  0  0  0  0  0  0  0  0  0
  141.5220  140.1920   88.7890 C   0  0  0  0  0  0  0  0  0  0  0  0
  142.6030  139.6580   89.5950 N   0  0  0  0  0  0  0  0  0  0  0  0
  143.0720  138.8390   89.3160 H   0  0  0  0  0  0  0  0  0  0  0  0
  141.0970  139.4930   87.4940 C   0  0  0  0  0  0  0  0  0  0  0  0
  141.8140  139.4460   86.3470 C   0  0  0  0  0  0  0  0  0  0  0  0
  141.2830  138.7480   85.2110 C   0  0  0  0  0  0  0  0  0  0  0  0
  141.8810  138.6070   83.9860 C   0  0  0  0  0  0  0  0  0  0  0  0
  141.2370  137.8970   82.9720 C   0  0  0  0  0  0  0  0  0  0  0  0
  139.9750  137.3240   83.2080 C   0  0  0  0  0  0  0  0  0  0  0  0
  139.3610  137.4630   84.4560 C   0  0  0  0  0  0  0  0  0  0  0  0
  137.7610  136.7330   84.7490 Cl  0  0  0  0  0  0  0  0  0  0  0  0
  139.9920  138.1630   85.4560 C   0  0  0  0  0  0  0  0  0  0  0  0
  139.6300  138.6090   87.1810 S   0  0  0  0  0  0  0  0  0  0  0  0
  142.9930  140.3540   90.8430 C   0  0  0  0  0  0  0  0  0  0  0  0
  142.2550  139.7320   92.0450 C   0  0  0  0  0  0  0  0  0  0  0  0
  143.1560  139.2480   92.9970 N   0  0  0  0  0  0  0  0  0  0  0  0
  143.9810  140.2610   93.4350 C   0  0  0  0  0  0  0  0  0  0  0  0
  144.7660  140.8560   92.3040 C   0  0  0  0  0  0  0  0  0  0  0  0
  144.4290  140.2110   91.0660 C   0  0  0  0  0  0  0  0  0  0  0  0
  144.7360  138.7880   91.1890 C   0  0  0  0  0  0  0  0  0  0  0  0
  143.9440  138.2180   92.4260 C   0  0  0  0  0  0  0  0  0  0  0  0
  1  2  2  0
  2  3  1  0
  3 15  1  0
 15 16  1  0
 16 17  1  0
 17 18  1  0
 18 19  1  0
 19 20  1  0
 20 21  1  0
 21 22  1  0
  2  5  1  0
  5  6  2  0
  6  7  1  0
  7  8  2  0
  8  9  1  0
  9 10  2  0
 10 11  1  0
 11 12  1  0
 11 13  2  0
 13 14  1  0
 20 15  1  0
 14  5  1  0
 22 17  1  0
 13  7  1  0
  3  4  1  0
M  END
> <meeko>
{"is_sidechain": false}

> <source_group>
CHRFAM7A at B face

> <source_system>
CHRNA7_encenicline

> <source_run>
hybrid_B_face_seed3301_ex32

> <source_seed>
3301

> <vina_pose_rank>
4

> <vina_affinity_kcal_mol>
-5.8330000000000002

> <vina_rmsd_to_crystal_angstrom>
7.2866999999999997

> <minimizedAffinity>
-5.64786

> <CNNscore>
0.1496397406

> <CNNaffinity>
4.3484358788

> <CNN_VS>
0.6506988406

> <CNNaffinity_variance>
1.5863538980

$$$$
CHRNA7_encenicline__hybrid_B_face_seed3301_ex32__pose05


 22 25  0  0  0  0  0  0  0  0999 V2000
  146.0340  144.8490   96.0300 O   0  0  0  0  0  0  0  0  0  0  0  0
  146.1530  144.2350   95.0240 C   0  0  0  0  0  0  0  0  0  0  0  0
  147.1390  144.6460   94.0430 N   0  0  0  0  0  0  0  0  0  0  0  0
  147.2460  144.1390   93.2060 H   0  0  0  0  0  0  0  0  0  0  0  0
  145.2670  143.0100   94.7730 C   0  0  0  0  0  0  0  0  0  0  0  0
  145.5450  141.9920   93.9270 C   0  0  0  0  0  0  0  0  0  0  0  0
  144.6150  140.9060   93.7990 C   0  0  0  0  0  0  0  0  0  0  0  0
  144.7490  139.8060   92.9940 C   0  0  0  0  0  0  0  0  0  0  0  0
  143.7530  138.8290   92.9750 C   0  0  0  0  0  0  0  0  0  0  0  0
  142.6130  138.9730   93.7830 C   0  0  0  0  0  0  0  0  0  0  0  0
  142.4710  140.0920   94.6090 C   0  0  0  0  0  0  0  0  0  0  0  0
  141.0220  140.2680   95.6340 Cl  0  0  0  0  0  0  0  0  0  0  0  0
  143.4500  141.0570   94.6280 C   0  0  0  0  0  0  0  0  0  0  0  0
  143.7270  142.6330   95.4910 S   0  0  0  0  0  0  0  0  0  0  0  0
  147.9820  145.8330   94.3100 C   0  0  0  0  0  0  0  0  0  0  0  0
  149.3450  145.3910   94.8790 C   0  0  0  0  0  0  0  0  0  0  0  0
  150.3980  145.8380   94.0760 N   0  0  0  0  0  0  0  0  0  0  0  0
  150.3670  147.2110   93.9640 C   0  0  0  0  0  0  0  0  0  0  0  0
  149.0790  147.6820   93.3570 C   0  0  0  0  0  0  0  0  0  0  0  0
  148.2220  146.5660   93.0700 C   0  0  0  0  0  0  0  0  0  0  0  0
  148.9150  145.6790   92.1390 C   0  0  0  0  0  0  0  0  0  0  0  0
  150.2900  145.2610   92.7860 C   0  0  0  0  0  0  0  0  0  0  0  0
  1  2  2  0
  2  3  1  0
  3 15  1  0
 15 16  1  0
 16 17  1  0
 17 18  1  0
 18 19  1  0
 19 20  1  0
 20 21  1  0
 21 22  1  0
  2  5  1  0
  5  6  2  0
  6  7  1  0
  7  8  2  0
  8  9  1  0
  9 10  2  0
 10 11  1  0
 11 12  1  0
 11 13  2  0
 13 14  1  0
 20 15  1  0
 14  5  1  0
 22 17  1  0
 13  7  1  0
  3  4  1  0
M  END
> <meeko>
{"is_sidechain": false}

> <source_group>
CHRFAM7A at B face

> <source_system>
CHRNA7_encenicline

> <source_run>
hybrid_B_face_seed3301_ex32

> <source_seed>
3301

> <vina_pose_rank>
5

> <vina_affinity_kcal_mol>
-5.8159999999999998

> <vina_rmsd_to_crystal_angstrom>
9.3526000000000007

> <minimizedAffinity>
-5.60897

> <CNNscore>
0.0707699060

> <CNNaffinity>
3.5317699909

> <CNN_VS>
0.2499430329

> <CNNaffinity_variance>
1.6295439005

$$$$
CHRNA7_encenicline__hybrid_B_face_seed3301_ex32__pose06


 22 25  0  0  0  0  0  0  0  0999 V2000
  147.4740  138.5120   90.1100 O   0  0  0  0  0  0  0  0  0  0  0  0
  147.7060  138.3100   91.2530 C   0  0  0  0  0  0  0  0  0  0  0  0
  146.6370  138.3870   92.2300 N   0  0  0  0  0  0  0  0  0  0  0  0
  146.8220  138.2170   93.1820 H   0  0  0  0  0  0  0  0  0  0  0  0
  149.1350  137.9640   91.6860 C   0  0  0  0  0  0  0  0  0  0  0  0
  149.8510  138.6050   92.6390 C   0  0  0  0  0  0  0  0  0  0  0  0
  151.1830  138.1640   92.9380 C   0  0  0  0  0  0  0  0  0  0  0  0
  152.0320  138.7010   93.8690 C   0  0  0  0  0  0  0  0  0  0  0  0
  153.3060  138.1610   94.0470 C   0  0  0  0  0  0  0  0  0  0  0  0
  153.7190  137.0640   93.2700 C   0  0  0  0  0  0  0  0  0  0  0  0
  152.8560  136.5110   92.3190 C   0  0  0  0  0  0  0  0  0  0  0  0
  153.3850  135.1190   91.3380 Cl  0  0  0  0  0  0  0  0  0  0  0  0
  151.6010  137.0410   92.1420 C   0  0  0  0  0  0  0  0  0  0  0  0
  150.1650  136.6980   91.0810 S   0  0  0  0  0  0  0  0  0  0  0  0
  145.2660  138.7230   91.7850 C   0  0  0  0  0  0  0  0  0  0  0  0
  144.2340  137.9870   92.6620 C   0  0  0  0  0  0  0  0  0  0  0  0
  143.3720  138.8890   93.2930 N   0  0  0  0  0  0  0  0  0  0  0  0
  142.7170  139.6610   92.3580 C   0  0  0  0  0  0  0  0  0  0  0  0
  143.6840  140.4430   91.5190 C   0  0  0  0  0  0  0  0  0  0  0  0
  145.0350  140.1580   91.9150 C   0  0  0  0  0  0  0  0  0  0  0  0
  145.1900  140.5230   93.3210 C   0  0  0  0  0  0  0  0  0  0  0  0
  144.1140  139.7310   94.1580 C   0  0  0  0  0  0  0  0  0  0  0  0
  1  2  2  0
  2  3  1  0
  3 15  1  0
 15 16  1  0
 16 17  1  0
 17 18  1  0
 18 19  1  0
 19 20  1  0
 20 21  1  0
 21 22  1  0
  2  5  1  0
  5  6  2  0
  6  7  1  0
  7  8  2  0
  8  9  1  0
  9 10  2  0
 10 11  1  0
 11 12  1  0
 11 13  2  0
 13 14  1  0
 20 15  1  0
 14  5  1  0
 22 17  1  0
 13  7  1  0
  3  4  1  0
M  END
> <meeko>
{"is_sidechain": false}

> <source_group>
CHRFAM7A at B face

> <source_system>
CHRNA7_encenicline

> <source_run>
hybrid_B_face_seed3301_ex32

> <source_seed>
3301

> <vina_pose_rank>
6

> <vina_affinity_kcal_mol>
-5.7530000000000001

> <vina_rmsd_to_crystal_angstrom>
6.3983999999999996

> <minimizedAffinity>
-5.52980

> <CNNscore>
0.0757472813

> <CNNaffinity>
3.9260103703

> <CNN_VS>
0.2973846197

> <CNNaffinity_variance>
1.1563638449

$$$$
CHRNA7_encenicline__hybrid_B_face_seed3301_ex32__pose07


 22 25  0  0  0  0  0  0  0  0999 V2000
  145.9190  145.2400   94.3960 O   0  0  0  0  0  0  0  0  0  0  0  0
  146.2490  144.1230   94.6140 C   0  0  0  0  0  0  0  0  0  0  0  0
  147.6540  143.8060   94.7770 N   0  0  0  0  0  0  0  0  0  0  0  0
  147.9360  142.8810   94.9610 H   0  0  0  0  0  0  0  0  0  0  0  0
  145.1840  143.0260   94.7250 C   0  0  0  0  0  0  0  0  0  0  0  0
  145.1450  141.8850   94.0000 C   0  0  0  0  0  0  0  0  0  0  0  0
  144.0820  140.9460   94.2180 C   0  0  0  0  0  0  0  0  0  0  0  0
  143.9010  139.7510   93.5730 C   0  0  0  0  0  0  0  0  0  0  0  0
  142.8120  138.9410   93.8940 C   0  0  0  0  0  0  0  0  0  0  0  0
  141.8980  139.3510   94.8800 C   0  0  0  0  0  0  0  0  0  0  0  0
  142.0770  140.5690   95.5440 C   0  0  0  0  0  0  0  0  0  0  0  0
  140.9170  141.0830   96.7960 Cl  0  0  0  0  0  0  0  0  0  0  0  0
  143.1500  141.3690   95.2290 C   0  0  0  0  0  0  0  0  0  0  0  0
  143.8000  142.9750   95.7790 S   0  0  0  0  0  0  0  0  0  0  0  0
  148.6630  144.8850   94.6650 C   0  0  0  0  0  0  0  0  0  0  0  0
  149.3150  145.1390   96.0380 C   0  0  0  0  0  0  0  0  0  0  0  0
  150.6990  144.9550   95.9830 N   0  0  0  0  0  0  0  0  0  0  0  0
  151.2570  145.7950   95.0440 C   0  0  0  0  0  0  0  0  0  0  0  0
  150.6940  145.5400   93.6780 C   0  0  0  0  0  0  0  0  0  0  0  0
  149.7110  144.4940   93.7280 C   0  0  0  0  0  0  0  0  0  0  0  0
  150.3530  143.2830   94.2340 C   0  0  0  0  0  0  0  0  0  0  0  0
  150.9870  143.6110   95.6390 C   0  0  0  0  0  0  0  0  0  0  0  0
  1  2  2  0
  2  3  1  0
  3 15  1  0
 15 16  1  0
 16 17  1  0
 17 18  1  0
 18 19  1  0
 19 20  1  0
 20 21  1  0
 21 22  1  0
  2  5  1  0
  5  6  2  0
  6  7  1  0
  7  8  2  0
  8  9  1  0
  9 10  2  0
 10 11  1  0
 11 12  1  0
 11 13  2  0
 13 14  1  0
 20 15  1  0
 14  5  1  0
 22 17  1  0
 13  7  1  0
  3  4  1  0
M  END
> <meeko>
{"is_sidechain": false}

> <source_group>
CHRFAM7A at B face

> <source_system>
CHRNA7_encenicline

> <source_run>
hybrid_B_face_seed3301_ex32

> <source_seed>
3301

> <vina_pose_rank>
7

> <vina_affinity_kcal_mol>
-5.7489999999999997

> <vina_rmsd_to_crystal_angstrom>
9.8495000000000008

> <minimizedAffinity>
-5.54386

> <CNNscore>
0.0661083609

> <CNNaffinity>
3.4447185993

> <CNN_VS>
0.2277247012

> <CNNaffinity_variance>
1.3571702242

$$$$
CHRNA7_encenicline__hybrid_B_face_seed3301_ex32__pose08


 22 25  0  0  0  0  0  0  0  0999 V2000
  146.3090  138.7090   90.4870 O   0  0  0  0  0  0  0  0  0  0  0  0
  146.5590  138.7410   91.6440 C   0  0  0  0  0  0  0  0  0  0  0  0
  147.8290  138.2300   92.1220 N   0  0  0  0  0  0  0  0  0  0  0  0
  148.0450  138.2540   93.0810 H   0  0  0  0  0  0  0  0  0  0  0  0
  145.5360  139.3260   92.6250 C   0  0  0  0  0  0  0  0  0  0  0  0
  144.3640  138.7520   92.9830 C   0  0  0  0  0  0  0  0  0  0  0  0
  143.5070  139.4220   93.9180 C   0  0  0  0  0  0  0  0  0  0  0  0
  142.2970  138.9770   94.3820 C   0  0  0  0  0  0  0  0  0  0  0  0
  141.5730  139.7450   95.2940 C   0  0  0  0  0  0  0  0  0  0  0  0
  142.0840  140.9770   95.7370 C   0  0  0  0  0  0  0  0  0  0  0  0
  143.3190  141.4360   95.2690 C   0  0  0  0  0  0  0  0  0  0  0  0
  143.9640  142.9990   95.8370 Cl  0  0  0  0  0  0  0  0  0  0  0  0
  144.0340  140.6820   94.3700 C   0  0  0  0  0  0  0  0  0  0  0  0
  145.6210  140.8300   93.4960 S   0  0  0  0  0  0  0  0  0  0  0  0
  148.7990  137.6700   91.1530 C   0  0  0  0  0  0  0  0  0  0  0  0
  149.7730  138.7700   90.6890 C   0  0  0  0  0  0  0  0  0  0  0  0
  151.0980  138.4260   90.9730 N   0  0  0  0  0  0  0  0  0  0  0  0
  151.4240  137.2340   90.3630 C   0  0  0  0  0  0  0  0  0  0  0  0
  150.5370  136.1180   90.8320 C   0  0  0  0  0  0  0  0  0  0  0  0
  149.5770  136.6070   91.7820 C   0  0  0  0  0  0  0  0  0  0  0  0
  150.3000  137.1760   92.9160 C   0  0  0  0  0  0  0  0  0  0  0  0
  151.2670  138.2970   92.3730 C   0  0  0  0  0  0  0  0  0  0  0  0
  1  2  2  0
  2  3  1  0
  3 15  1  0
 15 16  1  0
 16 17  1  0
 17 18  1  0
 18 19  1  0
 19 20  1  0
 20 21  1  0
 21 22  1  0
  2  5  1  0
  5  6  2  0
  6  7  1  0
  7  8  2  0
  8  9  1  0
  9 10  2  0
 10 11  1  0
 11 12  1  0
 11 13  2  0
 13 14  1  0
 20 15  1  0
 14  5  1  0
 22 17  1  0
 13  7  1  0
  3  4  1  0
M  END
> <meeko>
{"is_sidechain": false}

> <source_group>
CHRFAM7A at B face

> <source_system>
CHRNA7_encenicline

> <source_run>
hybrid_B_face_seed3301_ex32

> <source_seed>
3301

> <vina_pose_rank>
8

> <vina_affinity_kcal_mol>
-5.7149999999999999

> <vina_rmsd_to_crystal_angstrom>
8.6021000000000001

> <minimizedAffinity>
-5.54436

> <CNNscore>
0.1763449311

> <CNNaffinity>
4.4400424957

> <CNN_VS>
0.7829790115

> <CNNaffinity_variance>
0.3885665238

$$$$
CHRNA7_encenicline__hybrid_B_face_seed3301_ex32__pose09


 22 25  0  0  0  0  0  0  0  0999 V2000
  146.8220  144.3660   93.4030 O   0  0  0  0  0  0  0  0  0  0  0  0
  146.4780  144.0180   94.4810 C   0  0  0  0  0  0  0  0  0  0  0  0
  147.1150  144.5800   95.6570 N   0  0  0  0  0  0  0  0  0  0  0  0
  146.8330  144.2970   96.5570 H   0  0  0  0  0  0  0  0  0  0  0  0
  145.3600  142.9790   94.6220 C   0  0  0  0  0  0  0  0  0  0  0  0
  145.2660  141.8190   93.9310 C   0  0  0  0  0  0  0  0  0  0  0  0
  144.1570  140.9410   94.1730 C   0  0  0  0  0  0  0  0  0  0  0  0
  143.9190  139.7380   93.5630 C   0  0  0  0  0  0  0  0  0  0  0  0
  142.7900  138.9930   93.9050 C   0  0  0  0  0  0  0  0  0  0  0  0
  141.8960  139.4770   94.8750 C   0  0  0  0  0  0  0  0  0  0  0  0
  142.1340  140.7040   95.5020 C   0  0  0  0  0  0  0  0  0  0  0  0
  140.9970  141.3120   96.7340 Cl  0  0  0  0  0  0  0  0  0  0  0  0
  143.2450  141.4400   95.1670 C   0  0  0  0  0  0  0  0  0  0  0  0
  143.9720  143.0280   95.6710 S   0  0  0  0  0  0  0  0  0  0  0  0
  148.1920  145.5820   95.4930 C   0  0  0  0  0  0  0  0  0  0  0  0
  147.5960  147.0030   95.5160 C   0  0  0  0  0  0  0  0  0  0  0  0
  148.1540  147.7700   96.5410 N   0  0  0  0  0  0  0  0  0  0  0  0
  149.5220  147.8460   96.3920 C   0  0  0  0  0  0  0  0  0  0  0  0
  150.1530  146.4860   96.4260 C   0  0  0  0  0  0  0  0  0  0  0  0
  149.1490  145.4720   96.5900 C   0  0  0  0  0  0  0  0  0  0  0  0
  148.4420  145.7220   97.8440 C   0  0  0  0  0  0  0  0  0  0  0  0
  147.8520  147.1830   97.7940 C   0  0  0  0  0  0  0  0  0  0  0  0
  1  2  2  0
  2  3  1  0
  3 15  1  0
 15 16  1  0
 16 17  1  0
 17 18  1  0
 18 19  1  0
 19 20  1  0
 20 21  1  0
 21 22  1  0
  2  5  1  0
  5  6  2  0
  6  7  1  0
  7  8  2  0
  8  9  1  0
  9 10  2  0
 10 11  1  0
 11 12  1  0
 11 13  2  0
 13 14  1  0
 20 15  1  0
 14  5  1  0
 22 17  1  0
 13  7  1  0
  3  4  1  0
M  END
> <meeko>
{"is_sidechain": false}

> <source_group>
CHRFAM7A at B face

> <source_system>
CHRNA7_encenicline

> <source_run>
hybrid_B_face_seed3301_ex32

> <source_seed>
3301

> <vina_pose_rank>
9

> <vina_affinity_kcal_mol>
-5.6639999999999997

> <vina_rmsd_to_crystal_angstrom>
10.0153

> <minimizedAffinity>
-5.49220

> <CNNscore>
0.0770019069

> <CNNaffinity>
3.3024158478

> <CNN_VS>
0.2542923093

> <CNNaffinity_variance>
1.4191908836

$$$$
CHRNA7_encenicline__hybrid_B_face_seed3301_ex32__pose10


 22 25  0  0  0  0  0  0  0  0999 V2000
  146.0260  145.2340   95.8020 O   0  0  0  0  0  0  0  0  0  0  0  0
  146.1700  144.4660   94.9120 C   0  0  0  0  0  0  0  0  0  0  0  0
  147.2060  144.6950   93.9240 N   0  0  0  0  0  0  0  0  0  0  0  0
  147.3340  144.0600   93.1830 H   0  0  0  0  0  0  0  0  0  0  0  0
  145.2610  143.2350   94.8180 C   0  0  0  0  0  0  0  0  0  0  0  0
  144.0820  143.0710   95.4600 C   0  0  0  0  0  0  0  0  0  0  0  0
  143.3380  141.8590   95.2710 C   0  0  0  0  0  0  0  0  0  0  0  0
  142.1340  141.5410   95.8430 C   0  0  0  0  0  0  0  0  0  0  0  0
  141.5290  140.3150   95.5630 C   0  0  0  0  0  0  0  0  0  0  0  0
  142.1560  139.4060   94.6940 C   0  0  0  0  0  0  0  0  0  0  0  0
  143.3840  139.7240   94.1060 C   0  0  0  0  0  0  0  0  0  0  0  0
  144.1720  138.5670   93.0020 Cl  0  0  0  0  0  0  0  0  0  0  0  0
  143.9810  140.9310   94.3800 C   0  0  0  0  0  0  0  0  0  0  0  0
  145.5110  141.7830   93.8910 S   0  0  0  0  0  0  0  0  0  0  0  0
  148.0700  145.8920   94.0390 C   0  0  0  0  0  0  0  0  0  0  0  0
  149.3480  145.5440   94.8270 C   0  0  0  0  0  0  0  0  0  0  0  0
  150.4950  145.7940   94.0690 N   0  0  0  0  0  0  0  0  0  0  0  0
  150.5360  147.1160   93.6840 C   0  0  0  0  0  0  0  0  0  0  0  0
  149.3370  147.4840   92.8600 C   0  0  0  0  0  0  0  0  0  0  0  0
  148.4650  146.3530   92.7110 C   0  0  0  0  0  0  0  0  0  0  0  0
  149.2090  145.2810   92.0550 C   0  0  0  0  0  0  0  0  0  0  0  0
  150.4920  144.9710   92.9160 C   0  0  0  0  0  0  0  0  0  0  0  0
  1  2  2  0
  2  3  1  0
  3 15  1  0
 15 16  1  0
 16 17  1  0
 17 18  1  0
 18 19  1  0
 19 20  1  0
 20 21  1  0
 21 22  1  0
  2  5  1  0
  5  6  2  0
  6  7  1  0
  7  8  2  0
  8  9  1  0
  9 10  2  0
 10 11  1  0
 11 12  1  0
 11 13  2  0
 13 14  1  0
 20 15  1  0
 14  5  1  0
 22 17  1  0
 13  7  1  0
  3  4  1  0
M  END
> <meeko>
{"is_sidechain": false}

> <source_group>
CHRFAM7A at B face

> <source_system>
CHRNA7_encenicline

> <source_run>
hybrid_B_face_seed3301_ex32

> <source_seed>
3301

> <vina_pose_rank>
10

> <vina_affinity_kcal_mol>
-5.6429999999999998

> <vina_rmsd_to_crystal_angstrom>
9.4459

> <minimizedAffinity>
-5.46683

> <CNNscore>
0.0711765066

> <CNNaffinity>
3.6369388103

> <CNN_VS>
0.2588646114

> <CNNaffinity_variance>
1.1766237020

$$$$
CHRNA7_encenicline__hybrid_B_face_seed3301_ex32__pose11


 22 25  0  0  0  0  0  0  0  0999 V2000
  147.4550  138.5770   90.0730 O   0  0  0  0  0  0  0  0  0  0  0  0
  147.6920  138.2770   91.1930 C   0  0  0  0  0  0  0  0  0  0  0  0
  146.6320  138.2850   92.1820 N   0  0  0  0  0  0  0  0  0  0  0  0
  146.8200  138.0340   93.1150 H   0  0  0  0  0  0  0  0  0  0  0  0
  149.1200  137.8790   91.5850 C   0  0  0  0  0  0  0  0  0  0  0  0
  149.8250  136.8480   91.0640 C   0  0  0  0  0  0  0  0  0  0  0  0
  151.1590  136.5970   91.5310 C   0  0  0  0  0  0  0  0  0  0  0  0
  152.0000  135.6030   91.1080 C   0  0  0  0  0  0  0  0  0  0  0  0
  153.2750  135.4840   91.6600 C   0  0  0  0  0  0  0  0  0  0  0  0
  153.6980  136.3850   92.6520 C   0  0  0  0  0  0  0  0  0  0  0  0
  152.8450  137.4040   93.0880 C   0  0  0  0  0  0  0  0  0  0  0  0
  153.3870  138.5460   94.3450 Cl  0  0  0  0  0  0  0  0  0  0  0  0
  151.5880  137.5230   92.5460 C   0  0  0  0  0  0  0  0  0  0  0  0
  150.1610  138.6280   92.7610 S   0  0  0  0  0  0  0  0  0  0  0  0
  145.2620  138.6740   91.7770 C   0  0  0  0  0  0  0  0  0  0  0  0
  144.2270  137.9520   92.6620 C   0  0  0  0  0  0  0  0  0  0  0  0
  143.4100  138.8650   93.3330 N   0  0  0  0  0  0  0  0  0  0  0  0
  142.7580  139.6780   92.4310 C   0  0  0  0  0  0  0  0  0  0  0  0
  143.7300  140.4480   91.5870 C   0  0  0  0  0  0  0  0  0  0  0  0
  145.0800  140.1130   91.9440 C   0  0  0  0  0  0  0  0  0  0  0  0
  145.2780  140.4400   93.3530 C   0  0  0  0  0  0  0  0  0  0  0  0
  144.1980  139.6640   94.1980 C   0  0  0  0  0  0  0  0  0  0  0  0
  1  2  2  0
  2  3  1  0
  3 15  1  0
 15 16  1  0
 16 17  1  0
 17 18  1  0
 18 19  1  0
 19 20  1  0
 20 21  1  0
 21 22  1  0
  2  5  1  0
  5  6  2  0
  6  7  1  0
  7  8  2  0
  8  9  1  0
  9 10  2  0
 10 11  1  0
 11 12  1  0
 11 13  2  0
 13 14  1  0
 20 15  1  0
 14  5  1  0
 22 17  1  0
 13  7  1  0
  3  4  1  0
M  END
> <meeko>
{"is_sidechain": false}

> <source_group>
CHRFAM7A at B face

> <source_system>
CHRNA7_encenicline

> <source_run>
hybrid_B_face_seed3301_ex32

> <source_seed>
3301

> <vina_pose_rank>
11

> <vina_affinity_kcal_mol>
-5.5430000000000001

> <vina_rmsd_to_crystal_angstrom>
6.2750000000000004

> <minimizedAffinity>
-5.38464

> <CNNscore>
0.0616126209

> <CNNaffinity>
3.8866403103

> <CNN_VS>
0.2394661009

> <CNNaffinity_variance>
1.1257251501

$$$$
CHRNA7_encenicline__hybrid_B_face_seed3301_ex32__pose12


 22 25  0  0  0  0  0  0  0  0999 V2000
  148.4910  137.6560   92.3040 O   0  0  0  0  0  0  0  0  0  0  0  0
  147.9460  138.1300   91.3650 C   0  0  0  0  0  0  0  0  0  0  0  0
  148.6520  138.2410   90.1030 N   0  0  0  0  0  0  0  0  0  0  0  0
  148.2050  138.6310   89.3170 H   0  0  0  0  0  0  0  0  0  0  0  0
  146.4990  138.6170   91.4950 C   0  0  0  0  0  0  0  0  0  0  0  0
  145.6980  138.9980   90.4730 C   0  0  0  0  0  0  0  0  0  0  0  0
  144.3580  139.4310   90.7510 C   0  0  0  0  0  0  0  0  0  0  0  0
  143.4260  139.8440   89.8360 C   0  0  0  0  0  0  0  0  0  0  0  0
  142.1570  140.2390   90.2600 C   0  0  0  0  0  0  0  0  0  0  0  0
  141.8340  140.2130   91.6270 C   0  0  0  0  0  0  0  0  0  0  0  0
  142.7800  139.7920   92.5670 C   0  0  0  0  0  0  0  0  0  0  0  0
  142.3640  139.7600   94.3000 Cl  0  0  0  0  0  0  0  0  0  0  0  0
  144.0310  139.4030   92.1510 C   0  0  0  0  0  0  0  0  0  0  0  0
  145.5510  138.7980   92.9440 S   0  0  0  0  0  0  0  0  0  0  0  0
  150.0490  137.7620   90.0050 C   0  0  0  0  0  0  0  0  0  0  0  0
  150.0810  136.3600   89.3650 C   0  0  0  0  0  0  0  0  0  0  0  0
  150.8570  136.3510   88.2030 N   0  0  0  0  0  0  0  0  0  0  0  0
  152.1430  136.7600   88.4820 C   0  0  0  0  0  0  0  0  0  0  0  0
  152.1640  138.1480   89.0520 C   0  0  0  0  0  0  0  0  0  0  0  0
  150.8290  138.6650   89.1630 C   0  0  0  0  0  0  0  0  0  0  0  0
  150.2300  138.6840   87.8310 C   0  0  0  0  0  0  0  0  0  0  0  0
  150.2870  137.2230   87.2430 C   0  0  0  0  0  0  0  0  0  0  0  0
  1  2  2  0
  2  3  1  0
  3 15  1  0
 15 16  1  0
 16 17  1  0
 17 18  1  0
 18 19  1  0
 19 20  1  0
 20 21  1  0
 21 22  1  0
  2  5  1  0
  5  6  2  0
  6  7  1  0
  7  8  2  0
  8  9  1  0
  9 10  2  0
 10 11  1  0
 11 12  1  0
 11 13  2  0
 13 14  1  0
 20 15  1  0
 14  5  1  0
 22 17  1  0
 13  7  1  0
  3  4  1  0
M  END
> <meeko>
{"is_sidechain": false}

> <source_group>
CHRFAM7A at B face

> <source_system>
CHRNA7_encenicline

> <source_run>
hybrid_B_face_seed3301_ex32

> <source_seed>
3301

> <vina_pose_rank>
12

> <vina_affinity_kcal_mol>
-5.4889999999999999

> <vina_rmsd_to_crystal_angstrom>
8.5609999999999999

> <minimizedAffinity>
-5.28501

> <CNNscore>
0.2566125393

> <CNNaffinity>
5.0441021919

> <CNN_VS>
1.2943798304

> <CNNaffinity_variance>
0.2730679214

$$$$
CHRNA7_encenicline__hybrid_B_face_seed3301_ex32__pose13


 22 25  0  0  0  0  0  0  0  0999 V2000
  151.5680  136.3310   87.3740 O   0  0  0  0  0  0  0  0  0  0  0  0
  150.8090  136.2140   88.2750 C   0  0  0  0  0  0  0  0  0  0  0  0
  149.5030  135.6280   88.0470 N   0  0  0  0  0  0  0  0  0  0  0  0
  148.8680  135.5250   88.7920 H   0  0  0  0  0  0  0  0  0  0  0  0
  151.2190  136.6820   89.6760 C   0  0  0  0  0  0  0  0  0  0  0  0
  152.2200  136.1600   90.4230 C   0  0  0  0  0  0  0  0  0  0  0  0
  152.4890  136.7070   91.7230 C   0  0  0  0  0  0  0  0  0  0  0  0
  153.4610  136.2960   92.5970 C   0  0  0  0  0  0  0  0  0  0  0  0
  153.6010  136.9280   93.8330 C   0  0  0  0  0  0  0  0  0  0  0  0
  152.7450  137.9860   94.1820 C   0  0  0  0  0  0  0  0  0  0  0  0
  151.7520  138.4110   93.2940 C   0  0  0  0  0  0  0  0  0  0  0  0
  150.6700  139.7560   93.7410 Cl  0  0  0  0  0  0  0  0  0  0  0  0
  151.6120  137.7900   92.0760 C   0  0  0  0  0  0  0  0  0  0  0  0
  150.5230  137.9610   90.6300 S   0  0  0  0  0  0  0  0  0  0  0  0
  149.1320  135.1840   86.6840 C   0  0  0  0  0  0  0  0  0  0  0  0
  148.0370  134.1030   86.7630 C   0  0  0  0  0  0  0  0  0  0  0  0
  146.8900  134.4920   86.0660 N   0  0  0  0  0  0  0  0  0  0  0  0
  147.1940  134.7450   84.7460 C   0  0  0  0  0  0  0  0  0  0  0  0
  148.2150  135.8370   84.6190 C   0  0  0  0  0  0  0  0  0  0  0  0
  148.6070  136.3100   85.9170 C   0  0  0  0  0  0  0  0  0  0  0  0
  147.4190  136.8170   86.6000 C   0  0  0  0  0  0  0  0  0  0  0  0
  146.3490  135.6610   86.6540 C   0  0  0  0  0  0  0  0  0  0  0  0
  1  2  2  0
  2  3  1  0
  3 15  1  0
 15 16  1  0
 16 17  1  0
 17 18  1  0
 18 19  1  0
 19 20  1  0
 20 21  1  0
 21 22  1  0
  2  5  1  0
  5  6  2  0
  6  7  1  0
  7  8  2  0
  8  9  1  0
  9 10  2  0
 10 11  1  0
 11 12  1  0
 11 13  2  0
 13 14  1  0
 20 15  1  0
 14  5  1  0
 22 17  1  0
 13  7  1  0
  3  4  1  0
M  END
> <meeko>
{"is_sidechain": false}

> <source_group>
CHRFAM7A at B face

> <source_system>
CHRNA7_encenicline

> <source_run>
hybrid_B_face_seed3301_ex32

> <source_seed>
3301

> <vina_pose_rank>
13

> <vina_affinity_kcal_mol>
-5.4649999999999999

> <vina_rmsd_to_crystal_angstrom>
8.8315999999999999

> <minimizedAffinity>
-5.33220

> <CNNscore>
0.1006017625

> <CNNaffinity>
4.1879611015

> <CNN_VS>
0.4213162661

> <CNNaffinity_variance>
1.1334173679

$$$$
CHRNA7_encenicline__hybrid_B_face_seed3301_ex32__pose14


 22 25  0  0  0  0  0  0  0  0999 V2000
  148.0420  143.1650   94.7620 O   0  0  0  0  0  0  0  0  0  0  0  0
  147.0180  143.6210   94.3790 C   0  0  0  0  0  0  0  0  0  0  0  0
  147.0000  144.9280   93.7510 N   0  0  0  0  0  0  0  0  0  0  0  0
  146.1540  145.3120   93.4280 H   0  0  0  0  0  0  0  0  0  0  0  0
  145.7220  142.8200   94.5480 C   0  0  0  0  0  0  0  0  0  0  0  0
  144.6760  143.1650   95.3340 C   0  0  0  0  0  0  0  0  0  0  0  0
  143.5230  142.3110   95.3900 C   0  0  0  0  0  0  0  0  0  0  0  0
  142.3890  142.5170   96.1290 C   0  0  0  0  0  0  0  0  0  0  0  0
  141.3460  141.5910   96.0810 C   0  0  0  0  0  0  0  0  0  0  0  0
  141.4590  140.4470   95.2720 C   0  0  0  0  0  0  0  0  0  0  0  0
  142.6140  140.2320   94.5140 C   0  0  0  0  0  0  0  0  0  0  0  0
  142.7510  138.7800   93.4890 Cl  0  0  0  0  0  0  0  0  0  0  0  0
  143.6430  141.1420   94.5610 C   0  0  0  0  0  0  0  0  0  0  0  0
  145.2830  141.3130   93.7960 S   0  0  0  0  0  0  0  0  0  0  0  0
  148.2670  145.6800   93.6000 C   0  0  0  0  0  0  0  0  0  0  0  0
  148.1650  146.6460   92.4030 C   0  0  0  0  0  0  0  0  0  0  0  0
  148.3760  147.9680   92.8000 N   0  0  0  0  0  0  0  0  0  0  0  0
  149.6130  148.0990   93.3940 C   0  0  0  0  0  0  0  0  0  0  0  0
  149.7350  147.2190   94.6030 C   0  0  0  0  0  0  0  0  0  0  0  0
  148.5270  146.4680   94.8010 C   0  0  0  0  0  0  0  0  0  0  0  0
  147.4240  147.4090   94.9810 C   0  0  0  0  0  0  0  0  0  0  0  0
  147.3720  148.3560   93.7210 C   0  0  0  0  0  0  0  0  0  0  0  0
  1  2  2  0
  2  3  1  0
  3 15  1  0
 15 16  1  0
 16 17  1  0
 17 18  1  0
 18 19  1  0
 19 20  1  0
 20 21  1  0
 21 22  1  0
  2  5  1  0
  5  6  2  0
  6  7  1  0
  7  8  2  0
  8  9  1  0
  9 10  2  0
 10 11  1  0
 11 12  1  0
 11 13  2  0
 13 14  1  0
 20 15  1  0
 14  5  1  0
 22 17  1  0
 13  7  1  0
  3  4  1  0
M  END
> <meeko>
{"is_sidechain": false}

> <source_group>
CHRFAM7A at B face

> <source_system>
CHRNA7_encenicline

> <source_run>
hybrid_B_face_seed3301_ex32

> <source_seed>
3301

> <vina_pose_rank>
14

> <vina_affinity_kcal_mol>
-5.3710000000000004

> <vina_rmsd_to_crystal_angstrom>
9.5343

> <minimizedAffinity>
-5.20520

> <CNNscore>
0.0531674288

> <CNNaffinity>
3.3740451336

> <CNN_VS>
0.1793892980

> <CNNaffinity_variance>
1.3918441534

$$$$
CHRNA7_encenicline__hybrid_B_face_seed3301_ex32__pose15


 22 25  0  0  0  0  0  0  0  0999 V2000
  139.8540  140.9730   87.7290 O   0  0  0  0  0  0  0  0  0  0  0  0
  140.7580  140.2110   87.7950 C   0  0  0  0  0  0  0  0  0  0  0  0
  141.0970  139.3930   86.6470 N   0  0  0  0  0  0  0  0  0  0  0  0
  141.8480  138.7590   86.6940 H   0  0  0  0  0  0  0  0  0  0  0  0
  141.5630  140.1020   89.0950 C   0  0  0  0  0  0  0  0  0  0  0  0
  142.8690  139.7610   89.1910 C   0  0  0  0  0  0  0  0  0  0  0  0
  143.4910  139.7030   90.4830 C   0  0  0  0  0  0  0  0  0  0  0  0
  144.7950  139.3790   90.7490 C   0  0  0  0  0  0  0  0  0  0  0  0
  145.2570  139.3630   92.0650 C   0  0  0  0  0  0  0  0  0  0  0  0
  144.3830  139.6800   93.1200 C   0  0  0  0  0  0  0  0  0  0  0  0
  143.0510  140.0120   92.8550 C   0  0  0  0  0  0  0  0  0  0  0  0
  141.9480  140.4150   94.1970 Cl  0  0  0  0  0  0  0  0  0  0  0  0
  142.5940  140.0280   91.5590 C   0  0  0  0  0  0  0  0  0  0  0  0
  141.0180  140.3790   90.7250 S   0  0  0  0  0  0  0  0  0  0  0  0
  140.3020  139.5180   85.4040 C   0  0  0  0  0  0  0  0  0  0  0  0
  141.2390  139.7730   84.2060 C   0  0  0  0  0  0  0  0  0  0  0  0
  141.0940  138.7820   83.2310 N   0  0  0  0  0  0  0  0  0  0  0  0
  139.7880  138.7270   82.7930 C   0  0  0  0  0  0  0  0  0  0  0  0
  138.8450  138.4210   83.9190 C   0  0  0  0  0  0  0  0  0  0  0  0
  139.5670  138.2820   85.1530 C   0  0  0  0  0  0  0  0  0  0  0  0
  140.5310  137.1960   85.0030 C   0  0  0  0  0  0  0  0  0  0  0  0
  141.4580  137.5250   83.7720 C   0  0  0  0  0  0  0  0  0  0  0  0
  1  2  2  0
  2  3  1  0
  3 15  1  0
 15 16  1  0
 16 17  1  0
 17 18  1  0
 18 19  1  0
 19 20  1  0
 20 21  1  0
 21 22  1  0
  2  5  1  0
  5  6  2  0
  6  7  1  0
  7  8  2  0
  8  9  1  0
  9 10  2  0
 10 11  1  0
 11 12  1  0
 11 13  2  0
 13 14  1  0
 20 15  1  0
 14  5  1  0
 22 17  1  0
 13  7  1  0
  3  4  1  0
M  END
> <meeko>
{"is_sidechain": false}

> <source_group>
CHRFAM7A at B face

> <source_system>
CHRNA7_encenicline

> <source_run>
hybrid_B_face_seed3301_ex32

> <source_seed>
3301

> <vina_pose_rank>
15

> <vina_affinity_kcal_mol>
-5.3449999999999998

> <vina_rmsd_to_crystal_angstrom>
5.1578999999999997

> <minimizedAffinity>
-5.12223

> <CNNscore>
0.1160067990

> <CNNaffinity>
4.8560061455

> <CNN_VS>
0.5633297563

> <CNNaffinity_variance>
1.1402479410

$$$$
CHRNA7_encenicline__hybrid_B_face_seed3301_ex32__pose16


 22 25  0  0  0  0  0  0  0  0999 V2000
  148.3210  137.7220   92.1920 O   0  0  0  0  0  0  0  0  0  0  0  0
  148.0430  138.2080   91.1480 C   0  0  0  0  0  0  0  0  0  0  0  0
  146.6760  138.6100   90.8820 N   0  0  0  0  0  0  0  0  0  0  0  0
  146.4370  139.0160   90.0180 H   0  0  0  0  0  0  0  0  0  0  0  0
  149.1350  138.4100   90.0910 C   0  0  0  0  0  0  0  0  0  0  0  0
  149.0080  138.1670   88.7660 C   0  0  0  0  0  0  0  0  0  0  0  0
  150.1230  138.4080   87.8950 C   0  0  0  0  0  0  0  0  0  0  0  0
  150.1570  138.2160   86.5390 C   0  0  0  0  0  0  0  0  0  0  0  0
  151.3210  138.4940   85.8230 C   0  0  0  0  0  0  0  0  0  0  0  0
  152.4610  138.9720   86.4920 C   0  0  0  0  0  0  0  0  0  0  0  0
  152.4330  139.1710   87.8760 C   0  0  0  0  0  0  0  0  0  0  0  0
  153.8800  139.7800   88.7200 Cl  0  0  0  0  0  0  0  0  0  0  0  0
  151.2870  138.8970   88.5840 C   0  0  0  0  0  0  0  0  0  0  0  0
  150.7610  138.9850   90.3220 S   0  0  0  0  0  0  0  0  0  0  0  0
  145.6410  138.4030   91.9200 C   0  0  0  0  0  0  0  0  0  0  0  0
  145.4610  139.6920   92.7470 C   0  0  0  0  0  0  0  0  0  0  0  0
  144.1440  140.1540   92.6850 N   0  0  0  0  0  0  0  0  0  0  0  0
  143.2750  139.1880   93.1410 C   0  0  0  0  0  0  0  0  0  0  0  0
  143.3720  137.9330   92.3250 C   0  0  0  0  0  0  0  0  0  0  0  0
  144.3610  138.0810   91.2940 C   0  0  0  0  0  0  0  0  0  0  0  0
  143.9730  139.2010   90.4400 C   0  0  0  0  0  0  0  0  0  0  0  0
  143.8170  140.4820   91.3460 C   0  0  0  0  0  0  0  0  0  0  0  0
  1  2  2  0
  2  3  1  0
  3 15  1  0
 15 16  1  0
 16 17  1  0
 17 18  1  0
 18 19  1  0
 19 20  1  0
 20 21  1  0
 21 22  1  0
  2  5  1  0
  5  6  2  0
  6  7  1  0
  7  8  2  0
  8  9  1  0
  9 10  2  0
 10 11  1  0
 11 12  1  0
 11 13  2  0
 13 14  1  0
 20 15  1  0
 14  5  1  0
 22 17  1  0
 13  7  1  0
  3  4  1  0
M  END
> <meeko>
{"is_sidechain": false}

> <source_group>
CHRFAM7A at B face

> <source_system>
CHRNA7_encenicline

> <source_run>
hybrid_B_face_seed3301_ex32

> <source_seed>
3301

> <vina_pose_rank>
16

> <vina_affinity_kcal_mol>
-5.327

> <vina_rmsd_to_crystal_angstrom>
6.6890000000000001

> <minimizedAffinity>
-5.13115

> <CNNscore>
0.1172001883

> <CNNaffinity>
4.9361419678

> <CNN_VS>
0.5785167813

> <CNNaffinity_variance>
0.4879064262

$$$$
CHRNA7_encenicline__hybrid_B_face_seed3301_ex32__pose17


 22 25  0  0  0  0  0  0  0  0999 V2000
  145.5830  142.1210   93.6000 O   0  0  0  0  0  0  0  0  0  0  0  0
  145.3770  142.7620   94.5740 C   0  0  0  0  0  0  0  0  0  0  0  0
  146.3750  143.7040   95.0410 N   0  0  0  0  0  0  0  0  0  0  0  0
  146.2110  144.2430   95.8480 H   0  0  0  0  0  0  0  0  0  0  0  0
  144.0530  142.5920   95.3280 C   0  0  0  0  0  0  0  0  0  0  0  0
  143.6330  143.3460   96.3700 C   0  0  0  0  0  0  0  0  0  0  0  0
  142.3630  143.0670   96.9760 C   0  0  0  0  0  0  0  0  0  0  0  0
  141.7960  143.7340   98.0300 C   0  0  0  0  0  0  0  0  0  0  0  0
  140.5470  143.3440   98.5130 C   0  0  0  0  0  0  0  0  0  0  0  0
  139.8690  142.2660   97.9190 C   0  0  0  0  0  0  0  0  0  0  0  0
  140.4410  141.5820   96.8420 C   0  0  0  0  0  0  0  0  0  0  0  0
  139.5750  140.2170   96.0900 Cl  0  0  0  0  0  0  0  0  0  0  0  0
  141.6710  141.9650   96.3640 C   0  0  0  0  0  0  0  0  0  0  0  0
  142.7960  141.4220   95.0420 S   0  0  0  0  0  0  0  0  0  0  0  0
  147.6450  143.8490   94.2930 C   0  0  0  0  0  0  0  0  0  0  0  0
  147.6420  145.1730   93.5040 C   0  0  0  0  0  0  0  0  0  0  0  0
  148.7160  145.9870   93.8760 N   0  0  0  0  0  0  0  0  0  0  0  0
  149.9090  145.3300   93.6710 C   0  0  0  0  0  0  0  0  0  0  0  0
  149.9810  144.0620   94.4690 C   0  0  0  0  0  0  0  0  0  0  0  0
  148.7720  143.8740   95.2210 C   0  0  0  0  0  0  0  0  0  0  0  0
  148.6050  145.0160   96.1170 C   0  0  0  0  0  0  0  0  0  0  0  0
  148.6010  146.3300   95.2460 C   0  0  0  0  0  0  0  0  0  0  0  0
  1  2  2  0
  2  3  1  0
  3 15  1  0
 15 16  1  0
 16 17  1  0
 17 18  1  0
 18 19  1  0
 19 20  1  0
 20 21  1  0
 21 22  1  0
  2  5  1  0
  5  6  2  0
  6  7  1  0
  7  8  2  0
  8  9  1  0
  9 10  2  0
 10 11  1  0
 11 12  1  0
 11 13  2  0
 13 14  1  0
 20 15  1  0
 14  5  1  0
 22 17  1  0
 13  7  1  0
  3  4  1  0
M  END
> <meeko>
{"is_sidechain": false}

> <source_group>
CHRFAM7A at B face

> <source_system>
CHRNA7_encenicline

> <source_run>
hybrid_B_face_seed3301_ex32

> <source_seed>
3301

> <vina_pose_rank>
17

> <vina_affinity_kcal_mol>
-5.3120000000000003

> <vina_rmsd_to_crystal_angstrom>
10.162800000000001

> <minimizedAffinity>
-5.09850

> <CNNscore>
0.1146248206

> <CNNaffinity>
3.6592731476

> <CNN_VS>
0.4194435179

> <CNNaffinity_variance>
0.8806509972

$$$$
CHRNA7_encenicline__hybrid_B_face_seed3301_ex32__pose18


 22 25  0  0  0  0  0  0  0  0999 V2000
  151.7340  136.3560   87.5040 O   0  0  0  0  0  0  0  0  0  0  0  0
  150.9450  136.3570   88.3870 C   0  0  0  0  0  0  0  0  0  0  0  0
  149.6070  135.8460   88.1580 N   0  0  0  0  0  0  0  0  0  0  0  0
  148.9470  135.8410   88.8870 H   0  0  0  0  0  0  0  0  0  0  0  0
  151.3490  136.8950   89.7640 C   0  0  0  0  0  0  0  0  0  0  0  0
  150.9590  138.0750   90.2980 C   0  0  0  0  0  0  0  0  0  0  0  0
  151.4190  138.4450   91.6060 C   0  0  0  0  0  0  0  0  0  0  0  0
  151.1170  139.5960   92.2840 C   0  0  0  0  0  0  0  0  0  0  0  0
  151.6450  139.8170   93.5570 C   0  0  0  0  0  0  0  0  0  0  0  0
  152.4880  138.8580   94.1430 C   0  0  0  0  0  0  0  0  0  0  0  0
  152.8000  137.6800   93.4570 C   0  0  0  0  0  0  0  0  0  0  0  0
  153.8690  136.4660   94.2070 Cl  0  0  0  0  0  0  0  0  0  0  0  0
  152.2810  137.4600   92.2040 C   0  0  0  0  0  0  0  0  0  0  0  0
  152.3800  136.1470   90.9510 S   0  0  0  0  0  0  0  0  0  0  0  0
  149.2430  135.3320   86.8180 C   0  0  0  0  0  0  0  0  0  0  0  0
  148.1560  134.2480   86.9490 C   0  0  0  0  0  0  0  0  0  0  0  0
  147.0080  134.5930   86.2310 N   0  0  0  0  0  0  0  0  0  0  0  0
  147.3140  134.7820   84.9000 C   0  0  0  0  0  0  0  0  0  0  0  0
  148.3270  135.8740   84.7210 C   0  0  0  0  0  0  0  0  0  0  0  0
  148.7120  136.4140   85.9950 C   0  0  0  0  0  0  0  0  0  0  0  0
  147.5190  136.9460   86.6490 C   0  0  0  0  0  0  0  0  0  0  0  0
  146.4570  135.7870   86.7580 C   0  0  0  0  0  0  0  0  0  0  0  0
  1  2  2  0
  2  3  1  0
  3 15  1  0
 15 16  1  0
 16 17  1  0
 17 18  1  0
 18 19  1  0
 19 20  1  0
 20 21  1  0
 21 22  1  0
  2  5  1  0
  5  6  2  0
  6  7  1  0
  7  8  2  0
  8  9  1  0
  9 10  2  0
 10 11  1  0
 11 12  1  0
 11 13  2  0
 13 14  1  0
 20 15  1  0
 14  5  1  0
 22 17  1  0
 13  7  1  0
  3  4  1  0
M  END
> <meeko>
{"is_sidechain": false}

> <source_group>
CHRFAM7A at B face

> <source_system>
CHRNA7_encenicline

> <source_run>
hybrid_B_face_seed3301_ex32

> <source_seed>
3301

> <vina_pose_rank>
18

> <vina_affinity_kcal_mol>
-5.2770000000000001

> <vina_rmsd_to_crystal_angstrom>
8.8583999999999996

> <minimizedAffinity>
-5.09465

> <CNNscore>
0.0855327100

> <CNNaffinity>
4.0820121765

> <CNN_VS>
0.3491455615

> <CNNaffinity_variance>
0.7668774724

$$$$
CHRNA7_encenicline__hybrid_B_face_seed3301_ex32__pose19


 22 25  0  0  0  0  0  0  0  0999 V2000
  149.9990  135.1220   89.8650 O   0  0  0  0  0  0  0  0  0  0  0  0
  150.1800  136.2720   89.6480 C   0  0  0  0  0  0  0  0  0  0  0  0
  149.8680  136.8160   88.3400 N   0  0  0  0  0  0  0  0  0  0  0  0
  150.0130  137.7700   88.1520 H   0  0  0  0  0  0  0  0  0  0  0  0
  150.7400  137.1730   90.7530 C   0  0  0  0  0  0  0  0  0  0  0  0
  151.2970  136.7510   91.9120 C   0  0  0  0  0  0  0  0  0  0  0  0
  151.7820  137.7180   92.8550 C   0  0  0  0  0  0  0  0  0  0  0  0
  152.3690  137.4570   94.0650 C   0  0  0  0  0  0  0  0  0  0  0  0
  152.7910  138.5090   94.8790 C   0  0  0  0  0  0  0  0  0  0  0  0
  152.6120  139.8380   94.4580 C   0  0  0  0  0  0  0  0  0  0  0  0
  152.0140  140.1110   93.2240 C   0  0  0  0  0  0  0  0  0  0  0  0
  151.7920  141.7990   92.6940 Cl  0  0  0  0  0  0  0  0  0  0  0  0
  151.5980  139.0770   92.4210 C   0  0  0  0  0  0  0  0  0  0  0  0
  150.7990  138.9120   90.7960 S   0  0  0  0  0  0  0  0  0  0  0  0
  149.3280  135.9220   87.2900 C   0  0  0  0  0  0  0  0  0  0  0  0
  147.9660  136.4530   86.7980 C   0  0  0  0  0  0  0  0  0  0  0  0
  147.9880  136.7080   85.4250 N   0  0  0  0  0  0  0  0  0  0  0  0
  148.3160  135.5640   84.7300 C   0  0  0  0  0  0  0  0  0  0  0  0
  149.6650  135.0450   85.1340 C   0  0  0  0  0  0  0  0  0  0  0  0
  150.2390  135.8820   86.1500 C   0  0  0  0  0  0  0  0  0  0  0  0
  150.3670  137.2350   85.6160 C   0  0  0  0  0  0  0  0  0  0  0  0
  148.9430  137.7160   85.1430 C   0  0  0  0  0  0  0  0  0  0  0  0
  1  2  2  0
  2  3  1  0
  3 15  1  0
 15 16  1  0
 16 17  1  0
 17 18  1  0
 18 19  1  0
 19 20  1  0
 20 21  1  0
 21 22  1  0
  2  5  1  0
  5  6  2  0
  6  7  1  0
  7  8  2  0
  8  9  1  0
  9 10  2  0
 10 11  1  0
 11 12  1  0
 11 13  2  0
 13 14  1  0
 20 15  1  0
 14  5  1  0
 22 17  1  0
 13  7  1  0
  3  4  1  0
M  END
> <meeko>
{"is_sidechain": false}

> <source_group>
CHRFAM7A at B face

> <source_system>
CHRNA7_encenicline

> <source_run>
hybrid_B_face_seed3301_ex32

> <source_seed>
3301

> <vina_pose_rank>
19

> <vina_affinity_kcal_mol>
-4.9249999999999998

> <vina_rmsd_to_crystal_angstrom>
9.2117000000000004

> <minimizedAffinity>
-4.73003

> <CNNscore>
0.0813037604

> <CNNaffinity>
3.9943706989

> <CNN_VS>
0.3247573674

> <CNNaffinity_variance>
0.5230402350

$$$$
