CHRNA7_encenicline__hybrid_A_face_seed3301_ex32__pose01
     RDKit          3D

 38 41  0  0  0  0  0  0  0  0999 V2000
  142.0230  140.3990   90.9780 O   0  0  0  0  0  0  0  0  0  0  0  0
  142.1610  139.2450   90.7490 C   0  0  0  0  0  0  0  0  0  0  0  0
  141.0150  138.4460   90.3600 N   0  0  0  0  0  0  0  0  0  0  0  0
  139.6830  139.0850   90.2570 C   0  0  1  0  0  0  0  0  0  0  0  0
  139.3810  139.4370   88.7870 C   0  0  0  0  0  0  0  0  0  0  0  0
  138.2120  138.8110   88.3460 N   0  0  0  0  0  0  0  0  0  0  0  0
  137.1450  139.1780   89.1370 C   0  0  0  0  0  0  0  0  0  0  0  0
  137.3700  138.7990   90.5710 C   0  0  0  0  0  0  0  0  0  0  0  0
  138.6500  138.1670   90.7280 C   0  0  0  0  0  0  0  0  0  0  0  0
  138.6800  136.9720   89.8870 C   0  0  0  0  0  0  0  0  0  0  0  0
  138.3740  137.4050   88.4030 C   0  0  0  0  0  0  0  0  0  0  0  0
  143.5510  138.6100   90.8640 C   0  0  0  0  0  0  0  0  0  0  0  0
  143.8070  137.3000   91.0890 C   0  0  0  0  0  0  0  0  0  0  0  0
  145.1670  136.8510   91.1690 C   0  0  0  0  0  0  0  0  0  0  0  0
  145.5920  135.5670   91.3890 C   0  0  0  0  0  0  0  0  0  0  0  0
  146.9560  135.2820   91.4430 C   0  0  0  0  0  0  0  0  0  0  0  0
  147.8960  136.3130   91.2720 C   0  0  0  0  0  0  0  0  0  0  0  0
  147.4700  137.6250   91.0460 C   0  0  0  0  0  0  0  0  0  0  0  0
  148.6670  138.9280   90.8280 Cl  0  0  0  0  0  0  0  0  0  0  0  0
  146.1260  137.9080   90.9930 C   0  0  0  0  0  0  0  0  0  0  0  0
  145.1020  139.3890   90.7370 S   0  0  0  0  0  0  0  0  0  0  0  0
  141.1210  137.4870   90.1670 H   0  0  0  0  0  0  0  0  0  0  0  0
  139.6874  139.9967   90.8724 H   0  0  0  0  0  0  0  0  0  0  0  0
  139.2602  140.5266   88.6968 H   0  0  0  0  0  0  0  0  0  0  0  0
  140.2187  139.0862   88.1663 H   0  0  0  0  0  0  0  0  0  0  0  0
  137.0095  140.2677   89.0720 H   0  0  0  0  0  0  0  0  0  0  0  0
  136.2495  138.6508   88.7763 H   0  0  0  0  0  0  0  0  0  0  0  0
  137.3340  139.7043   91.1949 H   0  0  0  0  0  0  0  0  0  0  0  0
  136.5843  138.0943   90.8808 H   0  0  0  0  0  0  0  0  0  0  0  0
  138.8209  137.9041   91.7824 H   0  0  0  0  0  0  0  0  0  0  0  0
  139.6740  136.5040   89.9407 H   0  0  0  0  0  0  0  0  0  0  0  0
  137.9297  136.2457   90.2328 H   0  0  0  0  0  0  0  0  0  0  0  0
  139.2099  137.1055   87.7537 H   0  0  0  0  0  0  0  0  0  0  0  0
  137.4505  136.9150   88.0608 H   0  0  0  0  0  0  0  0  0  0  0  0
  142.9791  136.5858   91.2095 H   0  0  0  0  0  0  0  0  0  0  0  0
  144.8564  134.7602   91.5232 H   0  0  0  0  0  0  0  0  0  0  0  0
  147.2961  134.2509   91.6193 H   0  0  0  0  0  0  0  0  0  0  0  0
  148.9715  136.0864   91.3162 H   0  0  0  0  0  0  0  0  0  0  0  0
  1  2  2  0
  2  3  1  0
  3  4  1  0
  4  5  1  0
  5  6  1  0
  6  7  1  0
  7  8  1  0
  8  9  1  0
  9 10  1  0
 10 11  1  0
  2 12  1  0
 12 13  2  0
 13 14  1  0
 14 15  2  0
 15 16  1  0
 16 17  2  0
 17 18  1  0
 18 19  1  0
 18 20  2  0
 20 21  1  0
  9  4  1  0
 21 12  1  0
 11  6  1  0
 20 14  1  0
  3 22  1  0
  4 23  1  1
  5 24  1  0
  5 25  1  0
  7 26  1  0
  7 27  1  0
  8 28  1  0
  8 29  1  0
  9 30  1  0
 10 31  1  0
 10 32  1  0
 11 33  1  0
 11 34  1  0
 13 35  1  0
 15 36  1  0
 16 37  1  0
 17 38  1  0
M  END
>  <meeko>  (1)
{"is_sidechain": false}

>  <source_group>  (1)
CHRFAM7A at A face

>  <source_system>  (1)
CHRNA7_encenicline

>  <source_run>  (1)
hybrid_A_face_seed3301_ex32

>  <source_seed>  (1)
3301

>  <vina_pose_rank>  (1)
1

>  <vina_affinity_kcal_mol>  (1)
-7.5369999999999999

>  <vina_rmsd_to_crystal_angstrom>  (1)
2.0284

$$$$
CHRNA7_encenicline__hybrid_A_face_seed3301_ex32__pose02
     RDKit          3D

 38 41  0  0  0  0  0  0  0  0999 V2000
  142.3570  138.1480   90.8500 O   0  0  0  0  0  0  0  0  0  0  0  0
  142.4020  139.2130   90.3360 C   0  0  0  0  0  0  0  0  0  0  0  0
  141.1740  139.8680   89.9270 N   0  0  0  0  0  0  0  0  0  0  0  0
  139.8770  139.1920   90.1560 C   0  0  1  0  0  0  0  0  0  0  0  0
  138.7980  140.2330   90.5170 C   0  0  0  0  0  0  0  0  0  0  0  0
  137.7330  140.1920   89.6140 N   0  0  0  0  0  0  0  0  0  0  0  0
  137.1710  138.9340   89.5920 C   0  0  0  0  0  0  0  0  0  0  0  0
  138.1730  137.8940   89.1850 C   0  0  0  0  0  0  0  0  0  0  0  0
  139.4530  138.4990   88.9430 C   0  0  0  0  0  0  0  0  0  0  0  0
  139.3020  139.4870   87.8780 C   0  0  0  0  0  0  0  0  0  0  0  0
  138.1960  140.5200   88.3160 C   0  0  0  0  0  0  0  0  0  0  0  0
  143.7580  139.8900   90.1110 C   0  0  0  0  0  0  0  0  0  0  0  0
  144.3190  140.1600   88.9100 C   0  0  0  0  0  0  0  0  0  0  0  0
  145.6010  140.8040   88.8570 C   0  0  0  0  0  0  0  0  0  0  0  0
  146.2980  141.1450   87.7290 C   0  0  0  0  0  0  0  0  0  0  0  0
  147.5410  141.7690   87.8380 C   0  0  0  0  0  0  0  0  0  0  0  0
  148.0790  142.0460   89.1060 C   0  0  0  0  0  0  0  0  0  0  0  0
  147.3720  141.7010   90.2620 C   0  0  0  0  0  0  0  0  0  0  0  0
  148.0580  142.0580   91.8690 Cl  0  0  0  0  0  0  0  0  0  0  0  0
  146.1470  141.0870   90.1570 C   0  0  0  0  0  0  0  0  0  0  0  0
  144.8850  140.4640   91.3080 S   0  0  0  0  0  0  0  0  0  0  0  0
  141.2030  140.7550   89.5010 H   0  0  0  0  0  0  0  0  0  0  0  0
  140.0018  138.4727   90.9788 H   0  0  0  0  0  0  0  0  0  0  0  0
  138.4194  140.0213   91.5279 H   0  0  0  0  0  0  0  0  0  0  0  0
  139.2521  141.2340   90.4741 H   0  0  0  0  0  0  0  0  0  0  0  0
  136.7931  138.6932   90.5966 H   0  0  0  0  0  0  0  0  0  0  0  0
  136.3529  138.9331   88.8567 H   0  0  0  0  0  0  0  0  0  0  0  0
  138.2701  137.1500   89.9894 H   0  0  0  0  0  0  0  0  0  0  0  0
  137.8275  137.4084   88.2604 H   0  0  0  0  0  0  0  0  0  0  0  0
  140.1910  137.7340   88.6599 H   0  0  0  0  0  0  0  0  0  0  0  0
  140.2565  140.0096   87.7172 H   0  0  0  0  0  0  0  0  0  0  0  0
  139.0089  138.9922   86.9403 H   0  0  0  0  0  0  0  0  0  0  0  0
  138.6232  141.5336   88.3241 H   0  0  0  0  0  0  0  0  0  0  0  0
  137.3565  140.4823   87.6062 H   0  0  0  0  0  0  0  0  0  0  0  0
  143.7967  139.8881   87.9809 H   0  0  0  0  0  0  0  0  0  0  0  0
  145.8777  140.9268   86.7362 H   0  0  0  0  0  0  0  0  0  0  0  0
  148.0998  142.0441   86.9313 H   0  0  0  0  0  0  0  0  0  0  0  0
  149.0602  142.5362   89.1897 H   0  0  0  0  0  0  0  0  0  0  0  0
  1  2  2  0
  2  3  1  0
  3  4  1  0
  4  5  1  0
  5  6  1  0
  6  7  1  0
  7  8  1  0
  8  9  1  0
  9 10  1  0
 10 11  1  0
  2 12  1  0
 12 13  2  0
 13 14  1  0
 14 15  2  0
 15 16  1  0
 16 17  2  0
 17 18  1  0
 18 19  1  0
 18 20  2  0
 20 21  1  0
  9  4  1  0
 21 12  1  0
 11  6  1  0
 20 14  1  0
  3 22  1  0
  4 23  1  1
  5 24  1  0
  5 25  1  0
  7 26  1  0
  7 27  1  0
  8 28  1  0
  8 29  1  0
  9 30  1  0
 10 31  1  0
 10 32  1  0
 11 33  1  0
 11 34  1  0
 13 35  1  0
 15 36  1  0
 16 37  1  0
 17 38  1  0
M  END
>  <meeko>  (2)
{"is_sidechain": false}

>  <source_group>  (2)
CHRFAM7A at A face

>  <source_system>  (2)
CHRNA7_encenicline

>  <source_run>  (2)
hybrid_A_face_seed3301_ex32

>  <source_seed>  (2)
3301

>  <vina_pose_rank>  (2)
2

>  <vina_affinity_kcal_mol>  (2)
-7.5140000000000002

>  <vina_rmsd_to_crystal_angstrom>  (2)
4.4680999999999997

$$$$
CHRNA7_encenicline__hybrid_A_face_seed3301_ex32__pose03
     RDKit          3D

 38 41  0  0  0  0  0  0  0  0999 V2000
  142.8150  138.7720   91.1140 O   0  0  0  0  0  0  0  0  0  0  0  0
  142.6750  139.4680   90.1660 C   0  0  0  0  0  0  0  0  0  0  0  0
  141.3400  139.7900   89.7000 N   0  0  0  0  0  0  0  0  0  0  0  0
  140.1660  139.2380   90.4140 C   0  0  1  0  0  0  0  0  0  0  0  0
  139.0870  140.3270   90.5720 C   0  0  0  0  0  0  0  0  0  0  0  0
  137.8840  139.9380   89.9780 N   0  0  0  0  0  0  0  0  0  0  0  0
  137.4350  138.7590   90.5330 C   0  0  0  0  0  0  0  0  0  0  0  0
  138.4300  137.6530   90.3490 C   0  0  0  0  0  0  0  0  0  0  0  0
  139.5910  138.1330   89.6520 C   0  0  0  0  0  0  0  0  0  0  0  0
  139.1680  138.6440   88.3510 C   0  0  0  0  0  0  0  0  0  0  0  0
  138.0760  139.7560   88.5870 C   0  0  0  0  0  0  0  0  0  0  0  0
  143.9070  140.0260   89.4460 C   0  0  0  0  0  0  0  0  0  0  0  0
  144.9390  140.6770   90.0310 C   0  0  0  0  0  0  0  0  0  0  0  0
  146.0300  141.1420   89.2230 C   0  0  0  0  0  0  0  0  0  0  0  0
  147.1420  141.8120   89.6590 C   0  0  0  0  0  0  0  0  0  0  0  0
  148.1240  142.2030   88.7480 C   0  0  0  0  0  0  0  0  0  0  0  0
  147.9720  141.9100   87.3820 C   0  0  0  0  0  0  0  0  0  0  0  0
  146.8390  141.2250   86.9310 C   0  0  0  0  0  0  0  0  0  0  0  0
  146.6520  140.8540   85.1970 Cl  0  0  0  0  0  0  0  0  0  0  0  0
  145.8710  140.8390   87.8260 C   0  0  0  0  0  0  0  0  0  0  0  0
  144.2790  139.9640   87.7470 S   0  0  0  0  0  0  0  0  0  0  0  0
  141.2150  140.3700   88.9150 H   0  0  0  0  0  0  0  0  0  0  0  0
  140.4960  138.8844   91.4020 H   0  0  0  0  0  0  0  0  0  0  0  0
  138.9155  140.5091   91.6432 H   0  0  0  0  0  0  0  0  0  0  0  0
  139.4408  141.2418   90.0741 H   0  0  0  0  0  0  0  0  0  0  0  0
  137.2651  138.9120   91.6090 H   0  0  0  0  0  0  0  0  0  0  0  0
  136.5015  138.4720   90.0269 H   0  0  0  0  0  0  0  0  0  0  0  0
  138.7320  137.2698   91.3349 H   0  0  0  0  0  0  0  0  0  0  0  0
  137.9654  136.8507   89.7570 H   0  0  0  0  0  0  0  0  0  0  0  0
  140.3274  137.3249   89.5306 H   0  0  0  0  0  0  0  0  0  0  0  0
  140.0307  139.0761   87.8228 H   0  0  0  0  0  0  0  0  0  0  0  0
  138.7527  137.8287   87.7405 H   0  0  0  0  0  0  0  0  0  0  0  0
  138.4114  140.7015   88.1359 H   0  0  0  0  0  0  0  0  0  0  0  0
  137.1285  139.4453   88.1226 H   0  0  0  0  0  0  0  0  0  0  0  0
  144.9416  140.8485   91.1176 H   0  0  0  0  0  0  0  0  0  0  0  0
  147.2611  142.0421   90.7281 H   0  0  0  0  0  0  0  0  0  0  0  0
  149.0171  142.7406   89.0991 H   0  0  0  0  0  0  0  0  0  0  0  0
  148.7465  142.2204   86.6652 H   0  0  0  0  0  0  0  0  0  0  0  0
  1  2  2  0
  2  3  1  0
  3  4  1  0
  4  5  1  0
  5  6  1  0
  6  7  1  0
  7  8  1  0
  8  9  1  0
  9 10  1  0
 10 11  1  0
  2 12  1  0
 12 13  2  0
 13 14  1  0
 14 15  2  0
 15 16  1  0
 16 17  2  0
 17 18  1  0
 18 19  1  0
 18 20  2  0
 20 21  1  0
  9  4  1  0
 21 12  1  0
 11  6  1  0
 20 14  1  0
  3 22  1  0
  4 23  1  1
  5 24  1  0
  5 25  1  0
  7 26  1  0
  7 27  1  0
  8 28  1  0
  8 29  1  0
  9 30  1  0
 10 31  1  0
 10 32  1  0
 11 33  1  0
 11 34  1  0
 13 35  1  0
 15 36  1  0
 16 37  1  0
 17 38  1  0
M  END
>  <meeko>  (3)
{"is_sidechain": false}

>  <source_group>  (3)
CHRFAM7A at A face

>  <source_system>  (3)
CHRNA7_encenicline

>  <source_run>  (3)
hybrid_A_face_seed3301_ex32

>  <source_seed>  (3)
3301

>  <vina_pose_rank>  (3)
3

>  <vina_affinity_kcal_mol>  (3)
-7.4409999999999998

>  <vina_rmsd_to_crystal_angstrom>  (3)
4.9132999999999996

$$$$
CHRNA7_encenicline__hybrid_A_face_seed3301_ex32__pose04
     RDKit          3D

 38 41  0  0  0  0  0  0  0  0999 V2000
  142.0100  140.6370   91.1020 O   0  0  0  0  0  0  0  0  0  0  0  0
  142.2040  139.5010   90.8320 C   0  0  0  0  0  0  0  0  0  0  0  0
  141.1090  138.6770   90.3560 N   0  0  0  0  0  0  0  0  0  0  0  0
  139.7590  139.2690   90.2180 C   0  0  1  0  0  0  0  0  0  0  0  0
  139.4460  139.5220   88.7290 C   0  0  0  0  0  0  0  0  0  0  0  0
  138.2960  138.8370   88.3300 N   0  0  0  0  0  0  0  0  0  0  0  0
  137.2190  139.2200   89.1000 C   0  0  0  0  0  0  0  0  0  0  0  0
  137.4560  138.9350   90.5540 C   0  0  0  0  0  0  0  0  0  0  0  0
  138.7540  138.3510   90.7450 C   0  0  0  0  0  0  0  0  0  0  0  0
  138.8180  137.1090   89.9790 C   0  0  0  0  0  0  0  0  0  0  0  0
  138.4990  137.4420   88.4720 C   0  0  0  0  0  0  0  0  0  0  0  0
  143.6110  138.9140   90.9850 C   0  0  0  0  0  0  0  0  0  0  0  0
  144.7590  139.4870   90.5550 C   0  0  0  0  0  0  0  0  0  0  0  0
  146.0080  138.8160   90.7720 C   0  0  0  0  0  0  0  0  0  0  0  0
  147.2500  139.2600   90.4030 C   0  0  0  0  0  0  0  0  0  0  0  0
  148.3800  138.4910   90.6830 C   0  0  0  0  0  0  0  0  0  0  0  0
  148.2440  137.2590   91.3450 C   0  0  0  0  0  0  0  0  0  0  0  0
  146.9790  136.8000   91.7270 C   0  0  0  0  0  0  0  0  0  0  0  0
  146.8130  135.2370   92.5690 Cl  0  0  0  0  0  0  0  0  0  0  0  0
  145.8650  137.5560   91.4510 C   0  0  0  0  0  0  0  0  0  0  0  0
  144.0740  137.4090   91.7270 S   0  0  0  0  0  0  0  0  0  0  0  0
  141.2620  137.7320   90.1270 H   0  0  0  0  0  0  0  0  0  0  0  0
  139.7367  140.2158   90.7776 H   0  0  0  0  0  0  0  0  0  0  0  0
  139.2935  140.6001   88.5728 H   0  0  0  0  0  0  0  0  0  0  0  0
  140.2932  139.1585   88.1289 H   0  0  0  0  0  0  0  0  0  0  0  0
  137.0517  140.2994   88.9696 H   0  0  0  0  0  0  0  0  0  0  0  0
  136.3390  138.6462   88.7739 H   0  0  0  0  0  0  0  0  0  0  0  0
  137.3943  139.8748   91.1222 H   0  0  0  0  0  0  0  0  0  0  0  0
  136.6912  138.2281   90.9081 H   0  0  0  0  0  0  0  0  0  0  0  0
  138.9338  138.1568   91.8127 H   0  0  0  0  0  0  0  0  0  0  0  0
  139.8251  136.6738   90.0589 H   0  0  0  0  0  0  0  0  0  0  0  0
  138.0892  136.3838   90.3700 H   0  0  0  0  0  0  0  0  0  0  0  0
  139.3431  137.1280   87.8404 H   0  0  0  0  0  0  0  0  0  0  0  0
  137.5901  136.9055   88.1621 H   0  0  0  0  0  0  0  0  0  0  0  0
  144.7345  140.4602   90.0428 H   0  0  0  0  0  0  0  0  0  0  0  0
  147.3568  140.2245   89.8850 H   0  0  0  0  0  0  0  0  0  0  0  0
  149.3768  138.8489   90.3857 H   0  0  0  0  0  0  0  0  0  0  0  0
  149.1357  136.6532   91.5637 H   0  0  0  0  0  0  0  0  0  0  0  0
  1  2  2  0
  2  3  1  0
  3  4  1  0
  4  5  1  0
  5  6  1  0
  6  7  1  0
  7  8  1  0
  8  9  1  0
  9 10  1  0
 10 11  1  0
  2 12  1  0
 12 13  2  0
 13 14  1  0
 14 15  2  0
 15 16  1  0
 16 17  2  0
 17 18  1  0
 18 19  1  0
 18 20  2  0
 20 21  1  0
  9  4  1  0
 21 12  1  0
 11  6  1  0
 20 14  1  0
  3 22  1  0
  4 23  1  1
  5 24  1  0
  5 25  1  0
  7 26  1  0
  7 27  1  0
  8 28  1  0
  8 29  1  0
  9 30  1  0
 10 31  1  0
 10 32  1  0
 11 33  1  0
 11 34  1  0
 13 35  1  0
 15 36  1  0
 16 37  1  0
 17 38  1  0
M  END
>  <meeko>  (4)
{"is_sidechain": false}

>  <source_group>  (4)
CHRFAM7A at A face

>  <source_system>  (4)
CHRNA7_encenicline

>  <source_run>  (4)
hybrid_A_face_seed3301_ex32

>  <source_seed>  (4)
3301

>  <vina_pose_rank>  (4)
4

>  <vina_affinity_kcal_mol>  (4)
-7.0529999999999999

>  <vina_rmsd_to_crystal_angstrom>  (4)
2.6928000000000001

$$$$
CHRNA7_encenicline__hybrid_A_face_seed3301_ex32__pose05
     RDKit          3D

 38 41  0  0  0  0  0  0  0  0999 V2000
  144.6400  139.4520   92.0860 O   0  0  0  0  0  0  0  0  0  0  0  0
  144.2700  138.4880   91.5070 C   0  0  0  0  0  0  0  0  0  0  0  0
  145.1820  137.3810   91.2920 N   0  0  0  0  0  0  0  0  0  0  0  0
  146.5700  137.4730   91.7990 C   0  0  1  0  0  0  0  0  0  0  0  0
  147.0110  136.1110   92.3720 C   0  0  0  0  0  0  0  0  0  0  0  0
  148.1480  135.6310   91.7180 N   0  0  0  0  0  0  0  0  0  0  0  0
  149.1820  136.5350   91.8280 C   0  0  0  0  0  0  0  0  0  0  0  0
  148.8180  137.8600   91.2260 C   0  0  0  0  0  0  0  0  0  0  0  0
  147.4780  137.8250   90.7110 C   0  0  0  0  0  0  0  0  0  0  0  0
  147.4020  136.7800   89.6940 C   0  0  0  0  0  0  0  0  0  0  0  0
  147.8560  135.4190   90.3480 C   0  0  0  0  0  0  0  0  0  0  0  0
  142.8270  138.4200   90.9930 C   0  0  0  0  0  0  0  0  0  0  0  0
  142.0620  137.3050   90.9270 C   0  0  0  0  0  0  0  0  0  0  0  0
  140.7220  137.3980   90.4220 C   0  0  0  0  0  0  0  0  0  0  0  0
  139.8250  136.3720   90.2930 C   0  0  0  0  0  0  0  0  0  0  0  0
  138.5500  136.6180   89.7810 C   0  0  0  0  0  0  0  0  0  0  0  0
  138.1870  137.9200   89.3970 C   0  0  0  0  0  0  0  0  0  0  0  0
  139.0980  138.9730   89.5270 C   0  0  0  0  0  0  0  0  0  0  0  0
  138.6310  140.6230   89.0410 Cl  0  0  0  0  0  0  0  0  0  0  0  0
  140.3540  138.7330   90.0310 C   0  0  0  0  0  0  0  0  0  0  0  0
  141.8410  139.7180   90.3840 S   0  0  0  0  0  0  0  0  0  0  0  0
  144.8810  136.5750   90.8140 H   0  0  0  0  0  0  0  0  0  0  0  0
  146.6025  138.2441   92.5828 H   0  0  0  0  0  0  0  0  0  0  0  0
  147.2356  136.2281   93.4424 H   0  0  0  0  0  0  0  0  0  0  0  0
  146.1937  135.3900   92.2232 H   0  0  0  0  0  0  0  0  0  0  0  0
  149.4198  136.6788   92.8923 H   0  0  0  0  0  0  0  0  0  0  0  0
  150.0505  136.1349   91.2842 H   0  0  0  0  0  0  0  0  0  0  0  0
  148.8893  138.6406   91.9978 H   0  0  0  0  0  0  0  0  0  0  0  0
  149.5116  138.0795   90.4009 H   0  0  0  0  0  0  0  0  0  0  0  0
  147.2064  138.8018   90.2843 H   0  0  0  0  0  0  0  0  0  0  0  0
  146.3682  136.6907   89.3290 H   0  0  0  0  0  0  0  0  0  0  0  0
  148.0554  137.0291   88.8449 H   0  0  0  0  0  0  0  0  0  0  0  0
  147.0473  134.6791   90.2551 H   0  0  0  0  0  0  0  0  0  0  0  0
  148.7538  135.0452   89.8340 H   0  0  0  0  0  0  0  0  0  0  0  0
  142.4642  136.3360   91.2577 H   0  0  0  0  0  0  0  0  0  0  0  0
  140.1093  135.3526   90.5931 H   0  0  0  0  0  0  0  0  0  0  0  0
  137.8297  135.7930   89.6782 H   0  0  0  0  0  0  0  0  0  0  0  0
  137.1822  138.1117   88.9925 H   0  0  0  0  0  0  0  0  0  0  0  0
  1  2  2  0
  2  3  1  0
  3  4  1  0
  4  5  1  0
  5  6  1  0
  6  7  1  0
  7  8  1  0
  8  9  1  0
  9 10  1  0
 10 11  1  0
  2 12  1  0
 12 13  2  0
 13 14  1  0
 14 15  2  0
 15 16  1  0
 16 17  2  0
 17 18  1  0
 18 19  1  0
 18 20  2  0
 20 21  1  0
  9  4  1  0
 21 12  1  0
 11  6  1  0
 20 14  1  0
  3 22  1  0
  4 23  1  1
  5 24  1  0
  5 25  1  0
  7 26  1  0
  7 27  1  0
  8 28  1  0
  8 29  1  0
  9 30  1  0
 10 31  1  0
 10 32  1  0
 11 33  1  0
 11 34  1  0
 13 35  1  0
 15 36  1  0
 16 37  1  0
 17 38  1  0
M  END
>  <meeko>  (5)
{"is_sidechain": false}

>  <source_group>  (5)
CHRFAM7A at A face

>  <source_system>  (5)
CHRNA7_encenicline

>  <source_run>  (5)
hybrid_A_face_seed3301_ex32

>  <source_seed>  (5)
3301

>  <vina_pose_rank>  (5)
5

>  <vina_affinity_kcal_mol>  (5)
-6.6020000000000003

>  <vina_rmsd_to_crystal_angstrom>  (5)
7.6784999999999997

$$$$
CHRNA7_encenicline__hybrid_A_face_seed3301_ex32__pose06
     RDKit          3D

 38 41  0  0  0  0  0  0  0  0999 V2000
  142.2640  137.8250   90.8620 O   0  0  0  0  0  0  0  0  0  0  0  0
  142.3250  138.9910   90.6640 C   0  0  0  0  0  0  0  0  0  0  0  0
  141.1330  139.7180   90.2720 N   0  0  0  0  0  0  0  0  0  0  0  0
  139.8520  138.9900   90.1220 C   0  0  1  0  0  0  0  0  0  0  0  0
  138.6850  139.8780   90.5970 C   0  0  0  0  0  0  0  0  0  0  0  0
  137.7530  140.0770   89.5750 N   0  0  0  0  0  0  0  0  0  0  0  0
  137.2630  138.8680   89.1310 C   0  0  0  0  0  0  0  0  0  0  0  0
  138.3600  137.9930   88.6030 C   0  0  0  0  0  0  0  0  0  0  0  0
  139.6290  138.6550   88.7190 C   0  0  0  0  0  0  0  0  0  0  0  0
  139.5720  139.8980   87.9530 C   0  0  0  0  0  0  0  0  0  0  0  0
  138.3670  140.7570   88.4950 C   0  0  0  0  0  0  0  0  0  0  0  0
  143.6640  139.7190   90.8270 C   0  0  0  0  0  0  0  0  0  0  0  0
  144.2910  139.9690   92.0000 C   0  0  0  0  0  0  0  0  0  0  0  0
  145.5470  140.6630   91.9940 C   0  0  0  0  0  0  0  0  0  0  0  0
  146.3050  140.9890   93.0880 C   0  0  0  0  0  0  0  0  0  0  0  0
  147.5120  141.6700   92.9230 C   0  0  0  0  0  0  0  0  0  0  0  0
  147.9500  142.0220   91.6350 C   0  0  0  0  0  0  0  0  0  0  0  0
  147.1810  141.6910   90.5150 C   0  0  0  0  0  0  0  0  0  0  0  0
  147.7440  142.1380   88.8830 Cl  0  0  0  0  0  0  0  0  0  0  0  0
  145.9930  141.0200   90.6740 C   0  0  0  0  0  0  0  0  0  0  0  0
  144.6830  140.3870   89.5840 S   0  0  0  0  0  0  0  0  0  0  0  0
  141.1750  140.6880   90.1080 H   0  0  0  0  0  0  0  0  0  0  0  0
  139.9012  138.0722   90.7263 H   0  0  0  0  0  0  0  0  0  0  0  0
  138.1862  139.3904   91.4475 H   0  0  0  0  0  0  0  0  0  0  0  0
  139.0904  140.8565   90.8941 H   0  0  0  0  0  0  0  0  0  0  0  0
  136.7668  138.3541   89.9675 H   0  0  0  0  0  0  0  0  0  0  0  0
  136.5519  139.0618   88.3145 H   0  0  0  0  0  0  0  0  0  0  0  0
  138.3858  137.0566   89.1796 H   0  0  0  0  0  0  0  0  0  0  0  0
  138.1654  137.7786   87.5418 H   0  0  0  0  0  0  0  0  0  0  0  0
  140.4354  138.0065   88.3459 H   0  0  0  0  0  0  0  0  0  0  0  0
  140.5121  140.4554   88.0776 H   0  0  0  0  0  0  0  0  0  0  0  0
  139.4315  139.6790   86.8842 H   0  0  0  0  0  0  0  0  0  0  0  0
  138.7381  141.7335   88.8395 H   0  0  0  0  0  0  0  0  0  0  0  0
  137.6322  140.9081   87.6905 H   0  0  0  0  0  0  0  0  0  0  0  0
  143.8418  139.6431   92.9497 H   0  0  0  0  0  0  0  0  0  0  0  0
  145.9621  140.7139   94.0964 H   0  0  0  0  0  0  0  0  0  0  0  0
  148.1205  141.9312   93.8013 H   0  0  0  0  0  0  0  0  0  0  0  0
  148.9011  142.5598   91.5074 H   0  0  0  0  0  0  0  0  0  0  0  0
  1  2  2  0
  2  3  1  0
  3  4  1  0
  4  5  1  0
  5  6  1  0
  6  7  1  0
  7  8  1  0
  8  9  1  0
  9 10  1  0
 10 11  1  0
  2 12  1  0
 12 13  2  0
 13 14  1  0
 14 15  2  0
 15 16  1  0
 16 17  2  0
 17 18  1  0
 18 19  1  0
 18 20  2  0
 20 21  1  0
  9  4  1  0
 21 12  1  0
 11  6  1  0
 20 14  1  0
  3 22  1  0
  4 23  1  1
  5 24  1  0
  5 25  1  0
  7 26  1  0
  7 27  1  0
  8 28  1  0
  8 29  1  0
  9 30  1  0
 10 31  1  0
 10 32  1  0
 11 33  1  0
 11 34  1  0
 13 35  1  0
 15 36  1  0
 16 37  1  0
 17 38  1  0
M  END
>  <meeko>  (6)
{"is_sidechain": false}

>  <source_group>  (6)
CHRFAM7A at A face

>  <source_system>  (6)
CHRNA7_encenicline

>  <source_run>  (6)
hybrid_A_face_seed3301_ex32

>  <source_seed>  (6)
3301

>  <vina_pose_rank>  (6)
6

>  <vina_affinity_kcal_mol>  (6)
-6.4530000000000003

>  <vina_rmsd_to_crystal_angstrom>  (6)
4.2179000000000002

$$$$
CHRNA7_encenicline__hybrid_A_face_seed3301_ex32__pose07
     RDKit          3D

 38 41  0  0  0  0  0  0  0  0999 V2000
  144.4810  140.1360   90.4170 O   0  0  0  0  0  0  0  0  0  0  0  0
  144.0980  139.0370   90.6360 C   0  0  0  0  0  0  0  0  0  0  0  0
  145.0450  138.0040   91.0060 N   0  0  0  0  0  0  0  0  0  0  0  0
  146.4850  138.3370   91.1020 C   0  0  1  0  0  0  0  0  0  0  0  0
  147.1510  137.4780   92.1950 C   0  0  0  0  0  0  0  0  0  0  0  0
  148.1980  136.7150   91.6710 N   0  0  0  0  0  0  0  0  0  0  0  0
  149.1420  137.5330   91.0880 C   0  0  0  0  0  0  0  0  0  0  0  0
  148.5490  138.3460   89.9750 C   0  0  0  0  0  0  0  0  0  0  0  0
  147.1490  138.0570   89.8330 C   0  0  0  0  0  0  0  0  0  0  0  0
  147.0010  136.6330   89.5420 C   0  0  0  0  0  0  0  0  0  0  0  0
  147.6930  135.8170   90.6990 C   0  0  0  0  0  0  0  0  0  0  0  0
  142.6020  138.7210   90.5290 C   0  0  0  0  0  0  0  0  0  0  0  0
  141.6210  139.6130   90.2600 C   0  0  0  0  0  0  0  0  0  0  0  0
  140.2590  139.1660   90.1890 C   0  0  0  0  0  0  0  0  0  0  0  0
  139.1580  139.9370   89.9260 C   0  0  0  0  0  0  0  0  0  0  0  0
  137.8900  139.3560   89.8910 C   0  0  0  0  0  0  0  0  0  0  0  0
  137.7420  137.9790   90.1260 C   0  0  0  0  0  0  0  0  0  0  0  0
  138.8620  137.1850   90.3940 C   0  0  0  0  0  0  0  0  0  0  0  0
  138.6680  135.4380   90.6880 Cl  0  0  0  0  0  0  0  0  0  0  0  0
  140.1120  137.7550   90.4290 C   0  0  0  0  0  0  0  0  0  0  0  0
  141.8120  137.1810   90.7200 S   0  0  0  0  0  0  0  0  0  0  0  0
  144.7350  137.0890   91.1920 H   0  0  0  0  0  0  0  0  0  0  0  0
  146.5784  139.4048   91.3490 H   0  0  0  0  0  0  0  0  0  0  0  0
  147.5470  138.1396   92.9795 H   0  0  0  0  0  0  0  0  0  0  0  0
  146.3953  136.7942   92.6089 H   0  0  0  0  0  0  0  0  0  0  0  0
  149.5469  138.2133   91.8517 H   0  0  0  0  0  0  0  0  0  0  0  0
  149.9375  136.8996   90.6685 H   0  0  0  0  0  0  0  0  0  0  0  0
  148.6772  139.4152   90.1994 H   0  0  0  0  0  0  0  0  0  0  0  0
  149.0622  138.0920   89.0358 H   0  0  0  0  0  0  0  0  0  0  0  0
  146.7113  138.6657   89.0280 H   0  0  0  0  0  0  0  0  0  0  0  0
  145.9334  136.3729   89.4904 H   0  0  0  0  0  0  0  0  0  0  0  0
  147.4696  136.3928   88.5762 H   0  0  0  0  0  0  0  0  0  0  0  0
  146.9568  135.1464   91.1662 H   0  0  0  0  0  0  0  0  0  0  0  0
  148.5195  135.2210   90.2848 H   0  0  0  0  0  0  0  0  0  0  0  0
  141.8655  140.6730   90.0969 H   0  0  0  0  0  0  0  0  0  0  0  0
  139.2736  141.0154   89.7422 H   0  0  0  0  0  0  0  0  0  0  0  0
  137.0064  139.9761   89.6794 H   0  0  0  0  0  0  0  0  0  0  0  0
  136.7412  137.5232   90.0992 H   0  0  0  0  0  0  0  0  0  0  0  0
  1  2  2  0
  2  3  1  0
  3  4  1  0
  4  5  1  0
  5  6  1  0
  6  7  1  0
  7  8  1  0
  8  9  1  0
  9 10  1  0
 10 11  1  0
  2 12  1  0
 12 13  2  0
 13 14  1  0
 14 15  2  0
 15 16  1  0
 16 17  2  0
 17 18  1  0
 18 19  1  0
 18 20  2  0
 20 21  1  0
  9  4  1  0
 21 12  1  0
 11  6  1  0
 20 14  1  0
  3 22  1  0
  4 23  1  1
  5 24  1  0
  5 25  1  0
  7 26  1  0
  7 27  1  0
  8 28  1  0
  8 29  1  0
  9 30  1  0
 10 31  1  0
 10 32  1  0
 11 33  1  0
 11 34  1  0
 13 35  1  0
 15 36  1  0
 16 37  1  0
 17 38  1  0
M  END
>  <meeko>  (7)
{"is_sidechain": false}

>  <source_group>  (7)
CHRFAM7A at A face

>  <source_system>  (7)
CHRNA7_encenicline

>  <source_run>  (7)
hybrid_A_face_seed3301_ex32

>  <source_seed>  (7)
3301

>  <vina_pose_rank>  (7)
7

>  <vina_affinity_kcal_mol>  (7)
-6.4390000000000001

>  <vina_rmsd_to_crystal_angstrom>  (7)
7.5861000000000001

$$$$
CHRNA7_encenicline__hybrid_A_face_seed3301_ex32__pose08
     RDKit          3D

 38 41  0  0  0  0  0  0  0  0999 V2000
  144.1210  142.0440   92.5970 O   0  0  0  0  0  0  0  0  0  0  0  0
  143.8450  141.0890   93.2410 C   0  0  0  0  0  0  0  0  0  0  0  0
  142.9460  141.2190   94.3720 N   0  0  0  0  0  0  0  0  0  0  0  0
  142.3850  142.5470   94.7080 C   0  0  1  0  0  0  0  0  0  0  0  0
  140.8990  142.6070   94.3040 C   0  0  0  0  0  0  0  0  0  0  0  0
  140.0860  142.8910   95.4050 N   0  0  0  0  0  0  0  0  0  0  0  0
  140.4570  144.0880   95.9790 C   0  0  0  0  0  0  0  0  0  0  0  0
  141.8840  144.0530   96.4430 C   0  0  0  0  0  0  0  0  0  0  0  0
  142.4770  142.7790   96.1460 C   0  0  0  0  0  0  0  0  0  0  0  0
  141.7070  141.7420   96.8290 C   0  0  0  0  0  0  0  0  0  0  0  0
  140.2050  141.8560   96.3640 C   0  0  0  0  0  0  0  0  0  0  0  0
  144.4400  139.7260   92.8710 C   0  0  0  0  0  0  0  0  0  0  0  0
  143.7370  138.6220   92.5310 C   0  0  0  0  0  0  0  0  0  0  0  0
  144.4360  137.4120   92.2050 C   0  0  0  0  0  0  0  0  0  0  0  0
  143.8760  136.2160   91.8420 C   0  0  0  0  0  0  0  0  0  0  0  0
  144.6910  135.1210   91.5540 C   0  0  0  0  0  0  0  0  0  0  0  0
  146.0880  135.2440   91.6380 C   0  0  0  0  0  0  0  0  0  0  0  0
  146.6670  136.4620   92.0070 C   0  0  0  0  0  0  0  0  0  0  0  0
  148.4410  136.6130   92.1100 Cl  0  0  0  0  0  0  0  0  0  0  0  0
  145.8660  137.5420   92.2910 C   0  0  0  0  0  0  0  0  0  0  0  0
  146.1180  139.2700   92.7960 S   0  0  0  0  0  0  0  0  0  0  0  0
  142.7100  140.4300   94.9110 H   0  0  0  0  0  0  0  0  0  0  0  0
  142.9572  143.3132   94.1644 H   0  0  0  0  0  0  0  0  0  0  0  0
  140.7647  143.3934   93.5467 H   0  0  0  0  0  0  0  0  0  0  0  0
  140.6082  141.6258   93.9007 H   0  0  0  0  0  0  0  0  0  0  0  0
  140.3414  144.8919   95.2371 H   0  0  0  0  0  0  0  0  0  0  0  0
  139.8129  144.2678   96.8524 H   0  0  0  0  0  0  0  0  0  0  0  0
  142.4509  144.8446   95.9311 H   0  0  0  0  0  0  0  0  0  0  0  0
  141.9090  144.2127   97.5311 H   0  0  0  0  0  0  0  0  0  0  0  0
  143.5275  142.7598   96.4718 H   0  0  0  0  0  0  0  0  0  0  0  0
  142.1037  140.7501   96.5666 H   0  0  0  0  0  0  0  0  0  0  0  0
  141.7779  141.8723   97.9190 H   0  0  0  0  0  0  0  0  0  0  0  0
  139.8861  140.9030   95.9167 H   0  0  0  0  0  0  0  0  0  0  0  0
  139.5685  142.0845   97.2316 H   0  0  0  0  0  0  0  0  0  0  0  0
  142.6377  138.6513   92.5045 H   0  0  0  0  0  0  0  0  0  0  0  0
  142.7822  136.1187   91.7775 H   0  0  0  0  0  0  0  0  0  0  0  0
  144.2399  134.1614   91.2612 H   0  0  0  0  0  0  0  0  0  0  0  0
  146.7287  134.3788   91.4126 H   0  0  0  0  0  0  0  0  0  0  0  0
  1  2  2  0
  2  3  1  0
  3  4  1  0
  4  5  1  0
  5  6  1  0
  6  7  1  0
  7  8  1  0
  8  9  1  0
  9 10  1  0
 10 11  1  0
  2 12  1  0
 12 13  2  0
 13 14  1  0
 14 15  2  0
 15 16  1  0
 16 17  2  0
 17 18  1  0
 18 19  1  0
 18 20  2  0
 20 21  1  0
  9  4  1  0
 21 12  1  0
 11  6  1  0
 20 14  1  0
  3 22  1  0
  4 23  1  6
  5 24  1  0
  5 25  1  0
  7 26  1  0
  7 27  1  0
  8 28  1  0
  8 29  1  0
  9 30  1  0
 10 31  1  0
 10 32  1  0
 11 33  1  0
 11 34  1  0
 13 35  1  0
 15 36  1  0
 16 37  1  0
 17 38  1  0
M  END
>  <meeko>  (8)
{"is_sidechain": false}

>  <source_group>  (8)
CHRFAM7A at A face

>  <source_system>  (8)
CHRNA7_encenicline

>  <source_run>  (8)
hybrid_A_face_seed3301_ex32

>  <source_seed>  (8)
3301

>  <vina_pose_rank>  (8)
8

>  <vina_affinity_kcal_mol>  (8)
-6.335

>  <vina_rmsd_to_crystal_angstrom>  (8)
4.9237000000000002

$$$$
CHRNA7_encenicline__hybrid_A_face_seed3301_ex32__pose09
     RDKit          3D

 38 41  0  0  0  0  0  0  0  0999 V2000
  146.3210  140.4260   92.6790 O   0  0  0  0  0  0  0  0  0  0  0  0
  145.2290  139.9810   92.5730 C   0  0  0  0  0  0  0  0  0  0  0  0
  145.0330  138.7050   91.9120 N   0  0  0  0  0  0  0  0  0  0  0  0
  146.2030  137.9760   91.3740 C   0  0  1  0  0  0  0  0  0  0  0  0
  146.6770  136.9190   92.3910 C   0  0  0  0  0  0  0  0  0  0  0  0
  146.6510  135.6360   91.8380 N   0  0  0  0  0  0  0  0  0  0  0  0
  147.4450  135.5830   90.7130 C   0  0  0  0  0  0  0  0  0  0  0  0
  146.9820  136.5550   89.6690 C   0  0  0  0  0  0  0  0  0  0  0  0
  145.8390  137.2880   90.1380 C   0  0  0  0  0  0  0  0  0  0  0  0
  144.7730  136.3360   90.4390 C   0  0  0  0  0  0  0  0  0  0  0  0
  145.3210  135.2960   91.4880 C   0  0  0  0  0  0  0  0  0  0  0  0
  144.0360  140.7570   93.1400 C   0  0  0  0  0  0  0  0  0  0  0  0
  142.9590  141.1790   92.4360 C   0  0  0  0  0  0  0  0  0  0  0  0
  141.9140  141.8960   93.1080 C   0  0  0  0  0  0  0  0  0  0  0  0
  140.7660  142.3860   92.5430 C   0  0  0  0  0  0  0  0  0  0  0  0
  139.8370  143.0690   93.3290 C   0  0  0  0  0  0  0  0  0  0  0  0
  140.0790  143.2550   94.7010 C   0  0  0  0  0  0  0  0  0  0  0  0
  141.2490  142.7560   95.2840 C   0  0  0  0  0  0  0  0  0  0  0  0
  141.5500  142.9930   97.0250 Cl  0  0  0  0  0  0  0  0  0  0  0  0
  142.1650  142.0840   94.5110 C   0  0  0  0  0  0  0  0  0  0  0  0
  143.7720  141.2770   94.7800 S   0  0  0  0  0  0  0  0  0  0  0  0
  144.1290  138.3270   91.8220 H   0  0  0  0  0  0  0  0  0  0  0  0
  147.0051  138.7033   91.1800 H   0  0  0  0  0  0  0  0  0  0  0  0
  147.7058  137.1552   92.7004 H   0  0  0  0  0  0  0  0  0  0  0  0
  145.9969  136.9388   93.2553 H   0  0  0  0  0  0  0  0  0  0  0  0
  148.4803  135.8262   90.9941 H   0  0  0  0  0  0  0  0  0  0  0  0
  147.3821  134.5683   90.2929 H   0  0  0  0  0  0  0  0  0  0  0  0
  147.7963  137.2592   89.4431 H   0  0  0  0  0  0  0  0  0  0  0  0
  146.7011  135.9981   88.7629 H   0  0  0  0  0  0  0  0  0  0  0  0
  145.5092  138.0116   89.3780 H   0  0  0  0  0  0  0  0  0  0  0  0
  143.9070  136.8679   90.8599 H   0  0  0  0  0  0  0  0  0  0  0  0
  144.4566  135.8183   89.5214 H   0  0  0  0  0  0  0  0  0  0  0  0
  144.6886  135.3147   92.3879 H   0  0  0  0  0  0  0  0  0  0  0  0
  145.3033  134.2876   91.0489 H   0  0  0  0  0  0  0  0  0  0  0  0
  142.8861  140.9737   91.3578 H   0  0  0  0  0  0  0  0  0  0  0  0
  140.5765  142.2409   91.4692 H   0  0  0  0  0  0  0  0  0  0  0  0
  138.9154  143.4618   92.8748 H   0  0  0  0  0  0  0  0  0  0  0  0
  139.3460  143.7948   95.3186 H   0  0  0  0  0  0  0  0  0  0  0  0
  1  2  2  0
  2  3  1  0
  3  4  1  0
  4  5  1  0
  5  6  1  0
  6  7  1  0
  7  8  1  0
  8  9  1  0
  9 10  1  0
 10 11  1  0
  2 12  1  0
 12 13  2  0
 13 14  1  0
 14 15  2  0
 15 16  1  0
 16 17  2  0
 17 18  1  0
 18 19  1  0
 18 20  2  0
 20 21  1  0
  9  4  1  0
 21 12  1  0
 11  6  1  0
 20 14  1  0
  3 22  1  0
  4 23  1  6
  5 24  1  0
  5 25  1  0
  7 26  1  0
  7 27  1  0
  8 28  1  0
  8 29  1  0
  9 30  1  0
 10 31  1  0
 10 32  1  0
 11 33  1  0
 11 34  1  0
 13 35  1  0
 15 36  1  0
 16 37  1  0
 17 38  1  0
M  END
>  <meeko>  (9)
{"is_sidechain": false}

>  <source_group>  (9)
CHRFAM7A at A face

>  <source_system>  (9)
CHRNA7_encenicline

>  <source_run>  (9)
hybrid_A_face_seed3301_ex32

>  <source_seed>  (9)
3301

>  <vina_pose_rank>  (9)
9

>  <vina_affinity_kcal_mol>  (9)
-6.29

>  <vina_rmsd_to_crystal_angstrom>  (9)
7.8372000000000002

$$$$
CHRNA7_encenicline__hybrid_A_face_seed3301_ex32__pose10
     RDKit          3D

 38 41  0  0  0  0  0  0  0  0999 V2000
  144.6660  139.0530   91.6140 O   0  0  0  0  0  0  0  0  0  0  0  0
  144.0950  139.2410   90.5930 C   0  0  0  0  0  0  0  0  0  0  0  0
  144.8000  139.8280   89.4700 N   0  0  0  0  0  0  0  0  0  0  0  0
  146.2280  140.1890   89.6160 C   0  0  1  0  0  0  0  0  0  0  0  0
  147.1160  139.0490   89.0780 C   0  0  0  0  0  0  0  0  0  0  0  0
  147.9490  139.4980   88.0500 N   0  0  0  0  0  0  0  0  0  0  0  0
  148.7440  140.5320   88.4940 C   0  0  0  0  0  0  0  0  0  0  0  0
  147.9200  141.6910   88.9720 C   0  0  0  0  0  0  0  0  0  0  0  0
  146.5200  141.3950   88.8470 C   0  0  0  0  0  0  0  0  0  0  0  0
  146.2300  141.1250   87.4410 C   0  0  0  0  0  0  0  0  0  0  0  0
  147.1620  139.9480   86.9610 C   0  0  0  0  0  0  0  0  0  0  0  0
  142.6160  138.8570   90.4710 C   0  0  0  0  0  0  0  0  0  0  0  0
  141.6060  139.6940   90.1360 C   0  0  0  0  0  0  0  0  0  0  0  0
  140.2660  139.1870   90.0590 C   0  0  0  0  0  0  0  0  0  0  0  0
  139.1410  139.8970   89.7350 C   0  0  0  0  0  0  0  0  0  0  0  0
  137.8990  139.2630   89.7030 C   0  0  0  0  0  0  0  0  0  0  0  0
  137.8010  137.8940   90.0040 C   0  0  0  0  0  0  0  0  0  0  0  0
  138.9460  137.1620   90.3350 C   0  0  0  0  0  0  0  0  0  0  0  0
  138.8160  135.4250   90.7150 Cl  0  0  0  0  0  0  0  0  0  0  0  0
  140.1710  137.7850   90.3680 C   0  0  0  0  0  0  0  0  0  0  0  0
  141.8850  137.2980   90.7240 S   0  0  0  0  0  0  0  0  0  0  0  0
  144.3330  139.9850   88.6180 H   0  0  0  0  0  0  0  0  0  0  0  0
  146.4347  140.3610   90.6826 H   0  0  0  0  0  0  0  0  0  0  0  0
  147.7368  138.6603   89.8987 H   0  0  0  0  0  0  0  0  0  0  0  0
  146.4634  138.2595   88.6770 H   0  0  0  0  0  0  0  0  0  0  0  0
  149.3695  140.1714   89.3239 H   0  0  0  0  0  0  0  0  0  0  0  0
  149.3674  140.8738   87.6546 H   0  0  0  0  0  0  0  0  0  0  0  0
  148.1552  141.8921   90.0276 H   0  0  0  0  0  0  0  0  0  0  0  0
  148.1546  142.5730   88.3580 H   0  0  0  0  0  0  0  0  0  0  0  0
  145.9162  142.2387   89.2125 H   0  0  0  0  0  0  0  0  0  0  0  0
  145.1752  140.8341   87.3279 H   0  0  0  0  0  0  0  0  0  0  0  0
  146.4142  142.0252   86.8362 H   0  0  0  0  0  0  0  0  0  0  0  0
  146.5433  139.1186   86.5877 H   0  0  0  0  0  0  0  0  0  0  0  0
  147.8196  140.3050   86.1547 H   0  0  0  0  0  0  0  0  0  0  0  0
  141.8110  140.7539   89.9246 H   0  0  0  0  0  0  0  0  0  0  0  0
  139.2168  140.9689   89.4996 H   0  0  0  0  0  0  0  0  0  0  0  0
  136.9962  139.8348   89.4421 H   0  0  0  0  0  0  0  0  0  0  0  0
  136.8204  137.3962   89.9792 H   0  0  0  0  0  0  0  0  0  0  0  0
  1  2  2  0
  2  3  1  0
  3  4  1  0
  4  5  1  0
  5  6  1  0
  6  7  1  0
  7  8  1  0
  8  9  1  0
  9 10  1  0
 10 11  1  0
  2 12  1  0
 12 13  2  0
 13 14  1  0
 14 15  2  0
 15 16  1  0
 16 17  2  0
 17 18  1  0
 18 19  1  0
 18 20  2  0
 20 21  1  0
  9  4  1  0
 21 12  1  0
 11  6  1  0
 20 14  1  0
  3 22  1  0
  4 23  1  1
  5 24  1  0
  5 25  1  0
  7 26  1  0
  7 27  1  0
  8 28  1  0
  8 29  1  0
  9 30  1  0
 10 31  1  0
 10 32  1  0
 11 33  1  0
 11 34  1  0
 13 35  1  0
 15 36  1  0
 16 37  1  0
 17 38  1  0
M  END
>  <meeko>  (10)
{"is_sidechain": false}

>  <source_group>  (10)
CHRFAM7A at A face

>  <source_system>  (10)
CHRNA7_encenicline

>  <source_run>  (10)
hybrid_A_face_seed3301_ex32

>  <source_seed>  (10)
3301

>  <vina_pose_rank>  (10)
10

>  <vina_affinity_kcal_mol>  (10)
-6.2800000000000002

>  <vina_rmsd_to_crystal_angstrom>  (10)
7.0320999999999998

$$$$
CHRNA7_encenicline__hybrid_A_face_seed3301_ex32__pose11
     RDKit          3D

 38 41  0  0  0  0  0  0  0  0999 V2000
  143.3420  135.4770   91.3440 O   0  0  0  0  0  0  0  0  0  0  0  0
  143.3720  136.5670   90.8820 C   0  0  0  0  0  0  0  0  0  0  0  0
  144.6450  137.1680   90.5360 N   0  0  0  0  0  0  0  0  0  0  0  0
  145.8950  136.4090   90.7680 C   0  0  1  0  0  0  0  0  0  0  0  0
  146.9220  136.7390   89.6660 C   0  0  0  0  0  0  0  0  0  0  0  0
  148.0990  137.2590   90.2100 N   0  0  0  0  0  0  0  0  0  0  0  0
  148.6500  136.3660   91.1030 C   0  0  0  0  0  0  0  0  0  0  0  0
  147.7060  136.0620   92.2280 C   0  0  0  0  0  0  0  0  0  0  0  0
  146.4740  136.7800   92.0560 C   0  0  0  0  0  0  0  0  0  0  0  0
  146.7730  138.2090   92.0310 C   0  0  0  0  0  0  0  0  0  0  0  0
  147.8170  138.4760   90.8800 C   0  0  0  0  0  0  0  0  0  0  0  0
  142.0620  137.3300   90.6530 C   0  0  0  0  0  0  0  0  0  0  0  0
  140.8560  136.7720   90.3970 C   0  0  0  0  0  0  0  0  0  0  0  0
  139.7130  137.6190   90.2050 C   0  0  0  0  0  0  0  0  0  0  0  0
  138.4310  137.2140   89.9420 C   0  0  0  0  0  0  0  0  0  0  0  0
  137.4200  138.1610   89.7780 C   0  0  0  0  0  0  0  0  0  0  0  0
  137.7160  139.5310   89.8830 C   0  0  0  0  0  0  0  0  0  0  0  0
  139.0220  139.9500   90.1530 C   0  0  0  0  0  0  0  0  0  0  0  0
  139.3910  141.6890   90.2860 Cl  0  0  0  0  0  0  0  0  0  0  0  0
  140.0200  139.0200   90.3140 C   0  0  0  0  0  0  0  0  0  0  0  0
  141.8040  139.0510   90.6630 S   0  0  0  0  0  0  0  0  0  0  0  0
  144.6780  138.0730   90.1500 H   0  0  0  0  0  0  0  0  0  0  0  0
  145.6560  135.3353   90.7561 H   0  0  0  0  0  0  0  0  0  0  0  0
  147.1594  135.8199   89.1102 H   0  0  0  0  0  0  0  0  0  0  0  0
  146.4841  137.4950   88.9977 H   0  0  0  0  0  0  0  0  0  0  0  0
  148.8881  135.4317   90.5735 H   0  0  0  0  0  0  0  0  0  0  0  0
  149.5589  136.8177   91.5271 H   0  0  0  0  0  0  0  0  0  0  0  0
  147.4969  134.9822   92.2439 H   0  0  0  0  0  0  0  0  0  0  0  0
  148.1698  136.3713   93.1763 H   0  0  0  0  0  0  0  0  0  0  0  0
  145.7760  136.5445   92.8730 H   0  0  0  0  0  0  0  0  0  0  0  0
  145.8520  138.7784   91.8373 H   0  0  0  0  0  0  0  0  0  0  0  0
  147.1868  138.5267   92.9994 H   0  0  0  0  0  0  0  0  0  0  0  0
  147.3986  139.2002   90.1655 H   0  0  0  0  0  0  0  0  0  0  0  0
  148.7440  138.8821   91.3110 H   0  0  0  0  0  0  0  0  0  0  0  0
  140.7524  135.6786   90.3365 H   0  0  0  0  0  0  0  0  0  0  0  0
  138.1988  136.1419   89.8601 H   0  0  0  0  0  0  0  0  0  0  0  0
  136.3908  137.8355   89.5664 H   0  0  0  0  0  0  0  0  0  0  0  0
  136.9173  140.2760   89.7523 H   0  0  0  0  0  0  0  0  0  0  0  0
  1  2  2  0
  2  3  1  0
  3  4  1  0
  4  5  1  0
  5  6  1  0
  6  7  1  0
  7  8  1  0
  8  9  1  0
  9 10  1  0
 10 11  1  0
  2 12  1  0
 12 13  2  0
 13 14  1  0
 14 15  2  0
 15 16  1  0
 16 17  2  0
 17 18  1  0
 18 19  1  0
 18 20  2  0
 20 21  1  0
  9  4  1  0
 21 12  1  0
 11  6  1  0
 20 14  1  0
  3 22  1  0
  4 23  1  1
  5 24  1  0
  5 25  1  0
  7 26  1  0
  7 27  1  0
  8 28  1  0
  8 29  1  0
  9 30  1  0
 10 31  1  0
 10 32  1  0
 11 33  1  0
 11 34  1  0
 13 35  1  0
 15 36  1  0
 16 37  1  0
 17 38  1  0
M  END
>  <meeko>  (11)
{"is_sidechain": false}

>  <source_group>  (11)
CHRFAM7A at A face

>  <source_system>  (11)
CHRNA7_encenicline

>  <source_run>  (11)
hybrid_A_face_seed3301_ex32

>  <source_seed>  (11)
3301

>  <vina_pose_rank>  (11)
11

>  <vina_affinity_kcal_mol>  (11)
-6.1959999999999997

>  <vina_rmsd_to_crystal_angstrom>  (11)
7.7202000000000002

$$$$
CHRNA7_encenicline__hybrid_A_face_seed3301_ex32__pose12
     RDKit          3D

 38 41  0  0  0  0  0  0  0  0999 V2000
  141.3300  136.2100   90.7690 O   0  0  0  0  0  0  0  0  0  0  0  0
  141.7940  137.2960   90.6820 C   0  0  0  0  0  0  0  0  0  0  0  0
  140.9360  138.4230   90.3710 N   0  0  0  0  0  0  0  0  0  0  0  0
  139.4870  138.1990   90.1620 C   0  0  1  0  0  0  0  0  0  0  0  0
  138.6870  139.4040   90.6960 C   0  0  0  0  0  0  0  0  0  0  0  0
  137.9120  139.9840   89.6880 N   0  0  0  0  0  0  0  0  0  0  0  0
  137.0460  139.0550   89.1540 C   0  0  0  0  0  0  0  0  0  0  0  0
  137.7870  137.8900   88.5670 C   0  0  0  0  0  0  0  0  0  0  0  0
  139.2030  138.0590   88.7370 C   0  0  0  0  0  0  0  0  0  0  0  0
  139.6040  139.2930   88.0650 C   0  0  0  0  0  0  0  0  0  0  0  0
  138.7570  140.4790   88.6640 C   0  0  0  0  0  0  0  0  0  0  0  0
  143.2970  137.4990   90.9040 C   0  0  0  0  0  0  0  0  0  0  0  0
  144.2610  136.5770   90.6780 C   0  0  0  0  0  0  0  0  0  0  0  0
  145.6330  136.9150   90.9310 C   0  0  0  0  0  0  0  0  0  0  0  0
  146.7210  136.1010   90.7540 C   0  0  0  0  0  0  0  0  0  0  0  0
  148.0010  136.5730   91.0470 C   0  0  0  0  0  0  0  0  0  0  0  0
  148.1750  137.8830   91.5240 C   0  0  0  0  0  0  0  0  0  0  0  0
  147.0690  138.7190   91.7060 C   0  0  0  0  0  0  0  0  0  0  0  0
  147.2960  140.3810   92.3100 Cl  0  0  0  0  0  0  0  0  0  0  0  0
  145.8070  138.2560   91.4190 C   0  0  0  0  0  0  0  0  0  0  0  0
  144.1160  138.9210   91.4830 S   0  0  0  0  0  0  0  0  0  0  0  0
  141.3130  139.3290   90.3000 H   0  0  0  0  0  0  0  0  0  0  0  0
  139.1969  137.2827   90.6971 H   0  0  0  0  0  0  0  0  0  0  0  0
  138.0254  139.0644   91.5065 H   0  0  0  0  0  0  0  0  0  0  0  0
  139.3981  140.1576   91.0652 H   0  0  0  0  0  0  0  0  0  0  0  0
  136.3777  138.6907   89.9481 H   0  0  0  0  0  0  0  0  0  0  0  0
  136.4706  139.5393   88.3513 H   0  0  0  0  0  0  0  0  0  0  0  0
  137.4691  136.9664   89.0729 H   0  0  0  0  0  0  0  0  0  0  0  0
  137.5618  137.8295   87.4920 H   0  0  0  0  0  0  0  0  0  0  0  0
  139.7446  137.1971   88.3201 H   0  0  0  0  0  0  0  0  0  0  0  0
  140.6750  139.4779   88.2345 H   0  0  0  0  0  0  0  0  0  0  0  0
  139.4279  139.2099   86.9824 H   0  0  0  0  0  0  0  0  0  0  0  0
  139.4338  141.2387   89.0820 H   0  0  0  0  0  0  0  0  0  0  0  0
  138.1452  140.9313   87.8696 H   0  0  0  0  0  0  0  0  0  0  0  0
  143.9958  135.5772   90.3037 H   0  0  0  0  0  0  0  0  0  0  0  0
  146.5853  135.0752   90.3808 H   0  0  0  0  0  0  0  0  0  0  0  0
  148.8741  135.9192   90.9045 H   0  0  0  0  0  0  0  0  0  0  0  0
  149.1850  138.2524   91.7552 H   0  0  0  0  0  0  0  0  0  0  0  0
  1  2  2  0
  2  3  1  0
  3  4  1  0
  4  5  1  0
  5  6  1  0
  6  7  1  0
  7  8  1  0
  8  9  1  0
  9 10  1  0
 10 11  1  0
  2 12  1  0
 12 13  2  0
 13 14  1  0
 14 15  2  0
 15 16  1  0
 16 17  2  0
 17 18  1  0
 18 19  1  0
 18 20  2  0
 20 21  1  0
  9  4  1  0
 21 12  1  0
 11  6  1  0
 20 14  1  0
  3 22  1  0
  4 23  1  1
  5 24  1  0
  5 25  1  0
  7 26  1  0
  7 27  1  0
  8 28  1  0
  8 29  1  0
  9 30  1  0
 10 31  1  0
 10 32  1  0
 11 33  1  0
 11 34  1  0
 13 35  1  0
 15 36  1  0
 16 37  1  0
 17 38  1  0
M  END
>  <meeko>  (12)
{"is_sidechain": false}

>  <source_group>  (12)
CHRFAM7A at A face

>  <source_system>  (12)
CHRNA7_encenicline

>  <source_run>  (12)
hybrid_A_face_seed3301_ex32

>  <source_seed>  (12)
3301

>  <vina_pose_rank>  (12)
12

>  <vina_affinity_kcal_mol>  (12)
-6.1929999999999996

>  <vina_rmsd_to_crystal_angstrom>  (12)
2.9152999999999998

$$$$
CHRNA7_encenicline__hybrid_A_face_seed3301_ex32__pose13
     RDKit          3D

 38 41  0  0  0  0  0  0  0  0999 V2000
  139.9510  139.0960   90.3140 O   0  0  0  0  0  0  0  0  0  0  0  0
  140.4800  140.1420   90.4870 C   0  0  0  0  0  0  0  0  0  0  0  0
  141.9110  140.1970   90.7140 N   0  0  0  0  0  0  0  0  0  0  0  0
  142.6940  138.9400   90.7310 C   0  0  1  0  0  0  0  0  0  0  0  0
  143.8230  139.0110   89.6840 C   0  0  0  0  0  0  0  0  0  0  0  0
  145.0760  138.8430   90.2780 N   0  0  0  0  0  0  0  0  0  0  0  0
  145.1350  137.6360   90.9400 C   0  0  0  0  0  0  0  0  0  0  0  0
  144.0900  137.5480   92.0130 C   0  0  0  0  0  0  0  0  0  0  0  0
  143.3020  138.7480   92.0450 C   0  0  0  0  0  0  0  0  0  0  0  0
  144.1920  139.8760   92.3090 C   0  0  0  0  0  0  0  0  0  0  0  0
  145.3110  139.8930   91.1990 C   0  0  0  0  0  0  0  0  0  0  0  0
  139.6440  141.4270   90.4630 C   0  0  0  0  0  0  0  0  0  0  0  0
  139.5430  142.3230   91.4720 C   0  0  0  0  0  0  0  0  0  0  0  0
  138.7190  143.4860   91.3020 C   0  0  0  0  0  0  0  0  0  0  0  0
  138.5140  144.4820   92.2200 C   0  0  0  0  0  0  0  0  0  0  0  0
  137.6790  145.5560   91.9090 C   0  0  0  0  0  0  0  0  0  0  0  0
  137.0490  145.6160   90.6550 C   0  0  0  0  0  0  0  0  0  0  0  0
  137.2550  144.6030   89.7130 C   0  0  0  0  0  0  0  0  0  0  0  0
  136.4550  144.6860   88.1220 Cl  0  0  0  0  0  0  0  0  0  0  0  0
  138.0770  143.5440   90.0170 C   0  0  0  0  0  0  0  0  0  0  0  0
  138.6470  142.0370   89.1740 S   0  0  0  0  0  0  0  0  0  0  0  0
  142.3580  141.0620   90.8560 H   0  0  0  0  0  0  0  0  0  0  0  0
  142.0156  138.1048   90.5024 H   0  0  0  0  0  0  0  0  0  0  0  0
  143.6706  138.2171   88.9380 H   0  0  0  0  0  0  0  0  0  0  0  0
  143.7940  140.0023   89.2081 H   0  0  0  0  0  0  0  0  0  0  0  0
  144.9745  136.8230   90.2167 H   0  0  0  0  0  0  0  0  0  0  0  0
  146.1244  137.5486   91.4126 H   0  0  0  0  0  0  0  0  0  0  0  0
  143.4337  136.6889   91.8100 H   0  0  0  0  0  0  0  0  0  0  0  0
  144.5877  137.4223   92.9859 H   0  0  0  0  0  0  0  0  0  0  0  0
  142.5256  138.6769   92.8210 H   0  0  0  0  0  0  0  0  0  0  0  0
  143.6213  140.8158   92.2764 H   0  0  0  0  0  0  0  0  0  0  0  0
  144.6474  139.7747   93.3051 H   0  0  0  0  0  0  0  0  0  0  0  0
  145.2885  140.8571   90.6699 H   0  0  0  0  0  0  0  0  0  0  0  0
  146.2964  139.7563   91.6685 H   0  0  0  0  0  0  0  0  0  0  0  0
  140.0875  142.1616   92.4141 H   0  0  0  0  0  0  0  0  0  0  0  0
  139.0075  144.4352   93.2020 H   0  0  0  0  0  0  0  0  0  0  0  0
  137.5141  146.3558   92.6460 H   0  0  0  0  0  0  0  0  0  0  0  0
  136.3908  146.4634   90.4128 H   0  0  0  0  0  0  0  0  0  0  0  0
  1  2  2  0
  2  3  1  0
  3  4  1  0
  4  5  1  0
  5  6  1  0
  6  7  1  0
  7  8  1  0
  8  9  1  0
  9 10  1  0
 10 11  1  0
  2 12  1  0
 12 13  2  0
 13 14  1  0
 14 15  2  0
 15 16  1  0
 16 17  2  0
 17 18  1  0
 18 19  1  0
 18 20  2  0
 20 21  1  0
  9  4  1  0
 21 12  1  0
 11  6  1  0
 20 14  1  0
  3 22  1  0
  4 23  1  6
  5 24  1  0
  5 25  1  0
  7 26  1  0
  7 27  1  0
  8 28  1  0
  8 29  1  0
  9 30  1  0
 10 31  1  0
 10 32  1  0
 11 33  1  0
 11 34  1  0
 13 35  1  0
 15 36  1  0
 16 37  1  0
 17 38  1  0
M  END
>  <meeko>  (13)
{"is_sidechain": false}

>  <source_group>  (13)
CHRFAM7A at A face

>  <source_system>  (13)
CHRNA7_encenicline

>  <source_run>  (13)
hybrid_A_face_seed3301_ex32

>  <source_seed>  (13)
3301

>  <vina_pose_rank>  (13)
13

>  <vina_affinity_kcal_mol>  (13)
-6.0199999999999996

>  <vina_rmsd_to_crystal_angstrom>  (13)
8.6668000000000003

$$$$
CHRNA7_encenicline__hybrid_A_face_seed3301_ex32__pose14
     RDKit          3D

 38 41  0  0  0  0  0  0  0  0999 V2000
  143.8150  139.4250   95.6280 O   0  0  0  0  0  0  0  0  0  0  0  0
  143.6360  140.1050   94.6750 C   0  0  0  0  0  0  0  0  0  0  0  0
  142.9850  141.3930   94.8210 N   0  0  0  0  0  0  0  0  0  0  0  0
  142.5490  141.8400   96.1630 C   0  0  1  0  0  0  0  0  0  0  0  0
  142.8350  143.3450   96.3340 C   0  0  0  0  0  0  0  0  0  0  0  0
  141.6650  144.0550   96.6130 N   0  0  0  0  0  0  0  0  0  0  0  0
  141.0670  143.5660   97.7540 C   0  0  0  0  0  0  0  0  0  0  0  0
  140.7150  142.1150   97.6100 C   0  0  0  0  0  0  0  0  0  0  0  0
  141.1120  141.6290   96.3180 C   0  0  0  0  0  0  0  0  0  0  0  0
  140.4200  142.4130   95.2980 C   0  0  0  0  0  0  0  0  0  0  0  0
  140.7640  143.9340   95.5260 C   0  0  0  0  0  0  0  0  0  0  0  0
  144.0990  139.6170   93.2980 C   0  0  0  0  0  0  0  0  0  0  0  0
  144.4320  138.3450   92.9810 C   0  0  0  0  0  0  0  0  0  0  0  0
  144.8470  138.0370   91.6420 C   0  0  0  0  0  0  0  0  0  0  0  0
  145.2130  136.8070   91.1620 C   0  0  0  0  0  0  0  0  0  0  0  0
  145.5960  136.6640   89.8280 C   0  0  0  0  0  0  0  0  0  0  0  0
  145.6070  137.7820   88.9760 C   0  0  0  0  0  0  0  0  0  0  0  0
  145.2330  139.0390   89.4590 C   0  0  0  0  0  0  0  0  0  0  0  0
  145.2470  140.4530   88.3730 Cl  0  0  0  0  0  0  0  0  0  0  0  0
  144.8560  139.1830   90.7730 C   0  0  0  0  0  0  0  0  0  0  0  0
  144.3060  140.5470   91.8410 S   0  0  0  0  0  0  0  0  0  0  0  0
  142.8350  141.9650   94.0340 H   0  0  0  0  0  0  0  0  0  0  0  0
  143.1003  141.2600   96.9178 H   0  0  0  0  0  0  0  0  0  0  0  0
  143.5444  143.4831   97.1633 H   0  0  0  0  0  0  0  0  0  0  0  0
  143.2574  143.7274   95.3931 H   0  0  0  0  0  0  0  0  0  0  0  0
  141.7604  143.6836   98.5998 H   0  0  0  0  0  0  0  0  0  0  0  0
  140.1394  144.1312   97.9275 H   0  0  0  0  0  0  0  0  0  0  0  0
  141.2333  141.5373   98.3895 H   0  0  0  0  0  0  0  0  0  0  0  0
  139.6261  142.0000   97.7152 H   0  0  0  0  0  0  0  0  0  0  0  0
  140.8672  140.5612   96.2184 H   0  0  0  0  0  0  0  0  0  0  0  0
  140.7558  142.1015   94.2979 H   0  0  0  0  0  0  0  0  0  0  0  0
  139.3338  142.2549   95.3702 H   0  0  0  0  0  0  0  0  0  0  0  0
  141.2277  144.3456   94.6174 H   0  0  0  0  0  0  0  0  0  0  0  0
  139.8415  144.4898   95.7498 H   0  0  0  0  0  0  0  0  0  0  0  0
  144.3852  137.5531   93.7431 H   0  0  0  0  0  0  0  0  0  0  0  0
  145.2049  135.9320   91.8286 H   0  0  0  0  0  0  0  0  0  0  0  0
  145.8894  135.6762   89.4430 H   0  0  0  0  0  0  0  0  0  0  0  0
  145.9111  137.6671   87.9251 H   0  0  0  0  0  0  0  0  0  0  0  0
  1  2  2  0
  2  3  1  0
  3  4  1  0
  4  5  1  0
  5  6  1  0
  6  7  1  0
  7  8  1  0
  8  9  1  0
  9 10  1  0
 10 11  1  0
  2 12  1  0
 12 13  2  0
 13 14  1  0
 14 15  2  0
 15 16  1  0
 16 17  2  0
 17 18  1  0
 18 19  1  0
 18 20  2  0
 20 21  1  0
  9  4  1  0
 21 12  1  0
 11  6  1  0
 20 14  1  0
  3 22  1  0
  4 23  1  1
  5 24  1  0
  5 25  1  0
  7 26  1  0
  7 27  1  0
  8 28  1  0
  8 29  1  0
  9 30  1  0
 10 31  1  0
 10 32  1  0
 11 33  1  0
 11 34  1  0
 13 35  1  0
 15 36  1  0
 16 37  1  0
 17 38  1  0
M  END
>  <meeko>  (14)
{"is_sidechain": false}

>  <source_group>  (14)
CHRFAM7A at A face

>  <source_system>  (14)
CHRNA7_encenicline

>  <source_run>  (14)
hybrid_A_face_seed3301_ex32

>  <source_seed>  (14)
3301

>  <vina_pose_rank>  (14)
14

>  <vina_affinity_kcal_mol>  (14)
-6.0119999999999996

>  <vina_rmsd_to_crystal_angstrom>  (14)
5.9958999999999998

$$$$
CHRNA7_encenicline__hybrid_A_face_seed3301_ex32__pose15
     RDKit          3D

 38 41  0  0  0  0  0  0  0  0999 V2000
  140.0460  140.8540   85.9350 O   0  0  0  0  0  0  0  0  0  0  0  0
  140.9890  140.4320   86.5140 C   0  0  0  0  0  0  0  0  0  0  0  0
  140.8200  139.8340   87.8250 N   0  0  0  0  0  0  0  0  0  0  0  0
  139.4680  139.7620   88.4240 C   0  0  1  0  0  0  0  0  0  0  0  0
  138.7880  138.4360   88.0290 C   0  0  0  0  0  0  0  0  0  0  0  0
  138.4390  137.6900   89.1580 N   0  0  0  0  0  0  0  0  0  0  0  0
  137.5960  138.4170   89.9700 C   0  0  0  0  0  0  0  0  0  0  0  0
  138.2410  139.6910   90.4290 C   0  0  0  0  0  0  0  0  0  0  0  0
  139.5630  139.8090   89.8800 C   0  0  0  0  0  0  0  0  0  0  0  0
  140.3520  138.6640   90.3270 C   0  0  0  0  0  0  0  0  0  0  0  0
  139.6070  137.3480   89.8830 C   0  0  0  0  0  0  0  0  0  0  0  0
  142.3770  140.5190   85.8700 C   0  0  0  0  0  0  0  0  0  0  0  0
  142.6750  141.1600   84.7160 C   0  0  0  0  0  0  0  0  0  0  0  0
  144.0270  141.1580   84.2370 C   0  0  0  0  0  0  0  0  0  0  0  0
  144.4910  141.7570   83.0950 C   0  0  0  0  0  0  0  0  0  0  0  0
  145.8410  141.6660   82.7570 C   0  0  0  0  0  0  0  0  0  0  0  0
  146.7270  140.9590   83.5880 C   0  0  0  0  0  0  0  0  0  0  0  0
  146.2610  140.3450   84.7550 C   0  0  0  0  0  0  0  0  0  0  0  0
  147.3900  139.4510   85.8060 Cl  0  0  0  0  0  0  0  0  0  0  0  0
  144.9310  140.4340   85.0900 C   0  0  0  0  0  0  0  0  0  0  0  0
  143.8730  139.8370   86.4420 S   0  0  0  0  0  0  0  0  0  0  0  0
  141.5980  139.4780   88.3120 H   0  0  0  0  0  0  0  0  0  0  0  0
  138.8798  140.6153   88.0555 H   0  0  0  0  0  0  0  0  0  0  0  0
  137.8790  138.6576   87.4505 H   0  0  0  0  0  0  0  0  0  0  0  0
  139.4967  137.8470   87.4283 H   0  0  0  0  0  0  0  0  0  0  0  0
  136.6815  138.6608   89.4094 H   0  0  0  0  0  0  0  0  0  0  0  0
  137.3607  137.8096   90.8564 H   0  0  0  0  0  0  0  0  0  0  0  0
  137.6329  140.5453   90.0967 H   0  0  0  0  0  0  0  0  0  0  0  0
  138.3102  139.6805   91.5268 H   0  0  0  0  0  0  0  0  0  0  0  0
  140.0299  140.7508   90.2041 H   0  0  0  0  0  0  0  0  0  0  0  0
  141.3513  138.6988   89.8685 H   0  0  0  0  0  0  0  0  0  0  0  0
  140.4657  138.6852   91.4209 H   0  0  0  0  0  0  0  0  0  0  0  0
  140.2720  136.7472   89.2452 H   0  0  0  0  0  0  0  0  0  0  0  0
  139.3291  136.7650   90.7734 H   0  0  0  0  0  0  0  0  0  0  0  0
  141.8869  141.6783   84.1500 H   0  0  0  0  0  0  0  0  0  0  0  0
  143.7978  142.3102   82.4442 H   0  0  0  0  0  0  0  0  0  0  0  0
  146.2123  142.1474   81.8403 H   0  0  0  0  0  0  0  0  0  0  0  0
  147.7914  140.8883   83.3194 H   0  0  0  0  0  0  0  0  0  0  0  0
  1  2  2  0
  2  3  1  0
  3  4  1  0
  4  5  1  0
  5  6  1  0
  6  7  1  0
  7  8  1  0
  8  9  1  0
  9 10  1  0
 10 11  1  0
  2 12  1  0
 12 13  2  0
 13 14  1  0
 14 15  2  0
 15 16  1  0
 16 17  2  0
 17 18  1  0
 18 19  1  0
 18 20  2  0
 20 21  1  0
  9  4  1  0
 21 12  1  0
 11  6  1  0
 20 14  1  0
  3 22  1  0
  4 23  1  6
  5 24  1  0
  5 25  1  0
  7 26  1  0
  7 27  1  0
  8 28  1  0
  8 29  1  0
  9 30  1  0
 10 31  1  0
 10 32  1  0
 11 33  1  0
 11 34  1  0
 13 35  1  0
 15 36  1  0
 16 37  1  0
 17 38  1  0
M  END
>  <meeko>  (15)
{"is_sidechain": false}

>  <source_group>  (15)
CHRFAM7A at A face

>  <source_system>  (15)
CHRNA7_encenicline

>  <source_run>  (15)
hybrid_A_face_seed3301_ex32

>  <source_seed>  (15)
3301

>  <vina_pose_rank>  (15)
15

>  <vina_affinity_kcal_mol>  (15)
-5.9580000000000002

>  <vina_rmsd_to_crystal_angstrom>  (15)
6.3232999999999997

$$$$
CHRNA7_encenicline__hybrid_A_face_seed3301_ex32__pose16
     RDKit          3D

 38 41  0  0  0  0  0  0  0  0999 V2000
  148.1670  140.2930   91.2930 O   0  0  0  0  0  0  0  0  0  0  0  0
  147.9040  139.5200   90.4350 C   0  0  0  0  0  0  0  0  0  0  0  0
  148.4840  139.6830   89.1160 N   0  0  0  0  0  0  0  0  0  0  0  0
  149.3960  140.8200   88.8570 C   0  0  1  0  0  0  0  0  0  0  0  0
  150.6300  140.3350   88.0710 C   0  0  0  0  0  0  0  0  0  0  0  0
  150.7560  141.0150   86.8560 N   0  0  0  0  0  0  0  0  0  0  0  0
  150.8520  142.3720   87.0750 C   0  0  0  0  0  0  0  0  0  0  0  0
  149.6410  142.8990   87.7860 C   0  0  0  0  0  0  0  0  0  0  0  0
  148.7160  141.8350   88.0570 C   0  0  0  0  0  0  0  0  0  0  0  0
  148.3230  141.2310   86.7870 C   0  0  0  0  0  0  0  0  0  0  0  0
  149.6270  140.7510   86.0430 C   0  0  0  0  0  0  0  0  0  0  0  0
  146.9570  138.3520   90.7320 C   0  0  0  0  0  0  0  0  0  0  0  0
  147.3220  137.1340   91.1950 C   0  0  0  0  0  0  0  0  0  0  0  0
  146.3170  136.1370   91.4280 C   0  0  0  0  0  0  0  0  0  0  0  0
  146.5200  134.8650   91.8940 C   0  0  0  0  0  0  0  0  0  0  0  0
  145.4370  134.0040   92.0690 C   0  0  0  0  0  0  0  0  0  0  0  0
  144.1360  134.4410   91.7670 C   0  0  0  0  0  0  0  0  0  0  0  0
  143.9210  135.7390   91.2920 C   0  0  0  0  0  0  0  0  0  0  0  0
  142.2680  136.2890   90.9130 Cl  0  0  0  0  0  0  0  0  0  0  0  0
  144.9870  136.5890   91.1190 C   0  0  0  0  0  0  0  0  0  0  0  0
  145.2260  138.3000   90.5520 S   0  0  0  0  0  0  0  0  0  0  0  0
  148.2720  139.0430   88.3990 H   0  0  0  0  0  0  0  0  0  0  0  0
  149.7039  141.2446   89.8239 H   0  0  0  0  0  0  0  0  0  0  0  0
  151.5321  140.5107   88.6755 H   0  0  0  0  0  0  0  0  0  0  0  0
  150.5077  139.2627   87.8585 H   0  0  0  0  0  0  0  0  0  0  0  0
  151.7428  142.5734   87.6881 H   0  0  0  0  0  0  0  0  0  0  0  0
  150.9271  142.8754   86.0998 H   0  0  0  0  0  0  0  0  0  0  0  0
  149.9505  143.3605   88.7353 H   0  0  0  0  0  0  0  0  0  0  0  0
  149.1482  143.6451   87.1454 H   0  0  0  0  0  0  0  0  0  0  0  0
  147.8353  142.2200   88.5919 H   0  0  0  0  0  0  0  0  0  0  0  0
  147.6627  140.3710   86.9726 H   0  0  0  0  0  0  0  0  0  0  0  0
  147.7824  141.9638   86.1699 H   0  0  0  0  0  0  0  0  0  0  0  0
  149.5608  139.6708   85.8463 H   0  0  0  0  0  0  0  0  0  0  0  0
  149.7261  141.2908   85.0897 H   0  0  0  0  0  0  0  0  0  0  0  0
  148.3810  136.9101   91.3912 H   0  0  0  0  0  0  0  0  0  0  0  0
  147.5382  134.5224   92.1304 H   0  0  0  0  0  0  0  0  0  0  0  0
  145.6011  132.9828   92.4434 H   0  0  0  0  0  0  0  0  0  0  0  0
  143.2834  133.7597   91.9047 H   0  0  0  0  0  0  0  0  0  0  0  0
  1  2  2  0
  2  3  1  0
  3  4  1  0
  4  5  1  0
  5  6  1  0
  6  7  1  0
  7  8  1  0
  8  9  1  0
  9 10  1  0
 10 11  1  0
  2 12  1  0
 12 13  2  0
 13 14  1  0
 14 15  2  0
 15 16  1  0
 16 17  2  0
 17 18  1  0
 18 19  1  0
 18 20  2  0
 20 21  1  0
  9  4  1  0
 21 12  1  0
 11  6  1  0
 20 14  1  0
  3 22  1  0
  4 23  1  1
  5 24  1  0
  5 25  1  0
  7 26  1  0
  7 27  1  0
  8 28  1  0
  8 29  1  0
  9 30  1  0
 10 31  1  0
 10 32  1  0
 11 33  1  0
 11 34  1  0
 13 35  1  0
 15 36  1  0
 16 37  1  0
 17 38  1  0
M  END
>  <meeko>  (16)
{"is_sidechain": false}

>  <source_group>  (16)
CHRFAM7A at A face

>  <source_system>  (16)
CHRNA7_encenicline

>  <source_run>  (16)
hybrid_A_face_seed3301_ex32

>  <source_seed>  (16)
3301

>  <vina_pose_rank>  (16)
16

>  <vina_affinity_kcal_mol>  (16)
-5.9569999999999999

>  <vina_rmsd_to_crystal_angstrom>  (16)
7.1894

$$$$
CHRNA7_encenicline__hybrid_A_face_seed3301_ex32__pose17
     RDKit          3D

 38 41  0  0  0  0  0  0  0  0999 V2000
  138.3830  139.8740   88.0770 O   0  0  0  0  0  0  0  0  0  0  0  0
  138.7960  140.9690   87.8950 C   0  0  0  0  0  0  0  0  0  0  0  0
  139.4670  141.2880   86.6500 N   0  0  0  0  0  0  0  0  0  0  0  0
  139.6300  140.2370   85.6200 C   0  0  1  0  0  0  0  0  0  0  0  0
  139.9860  140.8800   84.2650 C   0  0  0  0  0  0  0  0  0  0  0  0
  141.2050  140.3990   83.7810 N   0  0  0  0  0  0  0  0  0  0  0  0
  141.1600  139.0280   83.6440 C   0  0  0  0  0  0  0  0  0  0  0  0
  140.8750  138.3560   84.9550 C   0  0  0  0  0  0  0  0  0  0  0  0
  140.7130  139.3330   85.9950 C   0  0  0  0  0  0  0  0  0  0  0  0
  141.9470  140.1100   86.0920 C   0  0  0  0  0  0  0  0  0  0  0  0
  142.2440  140.7440   84.6800 C   0  0  0  0  0  0  0  0  0  0  0  0
  138.6130  142.0370   88.9780 C   0  0  0  0  0  0  0  0  0  0  0  0
  137.9510  143.2080   88.8310 C   0  0  0  0  0  0  0  0  0  0  0  0
  137.8610  144.1120   89.9420 C   0  0  0  0  0  0  0  0  0  0  0  0
  137.2290  145.3280   89.9570 C   0  0  0  0  0  0  0  0  0  0  0  0
  137.2270  146.1000   91.1190 C   0  0  0  0  0  0  0  0  0  0  0  0
  137.8750  145.6310   92.2750 C   0  0  0  0  0  0  0  0  0  0  0  0
  138.5210  144.3910   92.2670 C   0  0  0  0  0  0  0  0  0  0  0  0
  139.3380  143.8000   93.7370 Cl  0  0  0  0  0  0  0  0  0  0  0  0
  138.5240  143.6280   91.1230 C   0  0  0  0  0  0  0  0  0  0  0  0
  139.1930  142.0150   90.6190 S   0  0  0  0  0  0  0  0  0  0  0  0
  139.8100  142.1960   86.4900 H   0  0  0  0  0  0  0  0  0  0  0  0
  138.6845  139.6806   85.5394 H   0  0  0  0  0  0  0  0  0  0  0  0
  139.1942  140.6462   83.5381 H   0  0  0  0  0  0  0  0  0  0  0  0
  140.0732  141.9672   84.4082 H   0  0  0  0  0  0  0  0  0  0  0  0
  140.3675  138.7657   82.9276 H   0  0  0  0  0  0  0  0  0  0  0  0
  142.1408  138.6836   83.2844 H   0  0  0  0  0  0  0  0  0  0  0  0
  139.9514  137.7652   84.8660 H   0  0  0  0  0  0  0  0  0  0  0  0
  141.7206  137.7005   85.2106 H   0  0  0  0  0  0  0  0  0  0  0  0
  140.4877  138.8404   86.9524 H   0  0  0  0  0  0  0  0  0  0  0  0
  141.8267  140.9075   86.8401 H   0  0  0  0  0  0  0  0  0  0  0  0
  142.7805  139.4613   86.3994 H   0  0  0  0  0  0  0  0  0  0  0  0
  142.2998  141.8386   84.7737 H   0  0  0  0  0  0  0  0  0  0  0  0
  143.2018  140.3600   84.2991 H   0  0  0  0  0  0  0  0  0  0  0  0
  137.4857  143.4649   87.8679 H   0  0  0  0  0  0  0  0  0  0  0  0
  136.7229  145.6956   89.0521 H   0  0  0  0  0  0  0  0  0  0  0  0
  136.7186  147.0754   91.1307 H   0  0  0  0  0  0  0  0  0  0  0  0
  137.8738  146.2421   93.1896 H   0  0  0  0  0  0  0  0  0  0  0  0
  1  2  2  0
  2  3  1  0
  3  4  1  0
  4  5  1  0
  5  6  1  0
  6  7  1  0
  7  8  1  0
  8  9  1  0
  9 10  1  0
 10 11  1  0
  2 12  1  0
 12 13  2  0
 13 14  1  0
 14 15  2  0
 15 16  1  0
 16 17  2  0
 17 18  1  0
 18 19  1  0
 18 20  2  0
 20 21  1  0
  9  4  1  0
 21 12  1  0
 11  6  1  0
 20 14  1  0
  3 22  1  0
  4 23  1  6
  5 24  1  0
  5 25  1  0
  7 26  1  0
  7 27  1  0
  8 28  1  0
  8 29  1  0
  9 30  1  0
 10 31  1  0
 10 32  1  0
 11 33  1  0
 11 34  1  0
 13 35  1  0
 15 36  1  0
 16 37  1  0
 17 38  1  0
M  END
>  <meeko>  (17)
{"is_sidechain": false}

>  <source_group>  (17)
CHRFAM7A at A face

>  <source_system>  (17)
CHRNA7_encenicline

>  <source_run>  (17)
hybrid_A_face_seed3301_ex32

>  <source_seed>  (17)
3301

>  <vina_pose_rank>  (17)
17

>  <vina_affinity_kcal_mol>  (17)
-5.9569999999999999

>  <vina_rmsd_to_crystal_angstrom>  (17)
8.5222999999999995

$$$$
CHRNA7_encenicline__hybrid_A_face_seed3301_ex32__pose18
     RDKit          3D

 38 41  0  0  0  0  0  0  0  0999 V2000
  144.9440  137.4870   91.5300 O   0  0  0  0  0  0  0  0  0  0  0  0
  144.4300  138.4350   91.0400 C   0  0  0  0  0  0  0  0  0  0  0  0
  145.2270  139.6050   90.7290 N   0  0  0  0  0  0  0  0  0  0  0  0
  146.6760  139.6020   91.0320 C   0  0  1  0  0  0  0  0  0  0  0  0
  147.4820  139.3590   89.7400 C   0  0  0  0  0  0  0  0  0  0  0  0
  148.3670  140.4110   89.4900 N   0  0  0  0  0  0  0  0  0  0  0  0
  149.2320  140.5720   90.5510 C   0  0  0  0  0  0  0  0  0  0  0  0
  148.4920  140.8720   91.8200 C   0  0  0  0  0  0  0  0  0  0  0  0
  147.0750  140.8940   91.5810 C   0  0  0  0  0  0  0  0  0  0  0  0
  146.7920  141.9250   90.5860 C   0  0  0  0  0  0  0  0  0  0  0  0
  147.6380  141.6100   89.2940 C   0  0  0  0  0  0  0  0  0  0  0  0
  142.9280  138.4110   90.7370 C   0  0  0  0  0  0  0  0  0  0  0  0
  142.1420  137.3090   90.7180 C   0  0  0  0  0  0  0  0  0  0  0  0
  140.7450  137.4440   90.4180 C   0  0  0  0  0  0  0  0  0  0  0  0
  139.8210  136.4350   90.3610 C   0  0  0  0  0  0  0  0  0  0  0  0
  138.4900  136.7240   90.0530 C   0  0  0  0  0  0  0  0  0  0  0  0
  138.0990  138.0500   89.8020 C   0  0  0  0  0  0  0  0  0  0  0  0
  139.0380  139.0840   89.8600 C   0  0  0  0  0  0  0  0  0  0  0  0
  138.5340  140.7650   89.5430 Cl  0  0  0  0  0  0  0  0  0  0  0  0
  140.3480  138.8030   90.1630 C   0  0  0  0  0  0  0  0  0  0  0  0
  141.8870  139.7520   90.3540 S   0  0  0  0  0  0  0  0  0  0  0  0
  144.8080  140.3960   90.3190 H   0  0  0  0  0  0  0  0  0  0  0  0
  146.8760  138.8033   91.7614 H   0  0  0  0  0  0  0  0  0  0  0  0
  148.0548  138.4257   89.8448 H   0  0  0  0  0  0  0  0  0  0  0  0
  146.7773  139.2897   88.8982 H   0  0  0  0  0  0  0  0  0  0  0  0
  149.8107  139.6461   90.6846 H   0  0  0  0  0  0  0  0  0  0  0  0
  149.8971  141.4197   90.3296 H   0  0  0  0  0  0  0  0  0  0  0  0
  148.7217  140.0964   92.5654 H   0  0  0  0  0  0  0  0  0  0  0  0
  148.8064  141.8585   92.1914 H   0  0  0  0  0  0  0  0  0  0  0  0
  146.5312  141.0981   92.5151 H   0  0  0  0  0  0  0  0  0  0  0  0
  145.7200  141.9198   90.3393 H   0  0  0  0  0  0  0  0  0  0  0  0
  147.0578  142.9166   90.9811 H   0  0  0  0  0  0  0  0  0  0  0  0
  146.9634  141.4929   88.4331 H   0  0  0  0  0  0  0  0  0  0  0  0
  148.3365  142.4376   89.1012 H   0  0  0  0  0  0  0  0  0  0  0  0
  142.5704  136.3184   90.9307 H   0  0  0  0  0  0  0  0  0  0  0  0
  140.1272  135.3970   90.5578 H   0  0  0  0  0  0  0  0  0  0  0  0
  137.7477  135.9136   90.0069 H   0  0  0  0  0  0  0  0  0  0  0  0
  137.0501  138.2753   89.5590 H   0  0  0  0  0  0  0  0  0  0  0  0
  1  2  2  0
  2  3  1  0
  3  4  1  0
  4  5  1  0
  5  6  1  0
  6  7  1  0
  7  8  1  0
  8  9  1  0
  9 10  1  0
 10 11  1  0
  2 12  1  0
 12 13  2  0
 13 14  1  0
 14 15  2  0
 15 16  1  0
 16 17  2  0
 17 18  1  0
 18 19  1  0
 18 20  2  0
 20 21  1  0
  9  4  1  0
 21 12  1  0
 11  6  1  0
 20 14  1  0
  3 22  1  0
  4 23  1  1
  5 24  1  0
  5 25  1  0
  7 26  1  0
  7 27  1  0
  8 28  1  0
  8 29  1  0
  9 30  1  0
 10 31  1  0
 10 32  1  0
 11 33  1  0
 11 34  1  0
 13 35  1  0
 15 36  1  0
 16 37  1  0
 17 38  1  0
M  END
>  <meeko>  (18)
{"is_sidechain": false}

>  <source_group>  (18)
CHRFAM7A at A face

>  <source_system>  (18)
CHRNA7_encenicline

>  <source_run>  (18)
hybrid_A_face_seed3301_ex32

>  <source_seed>  (18)
3301

>  <vina_pose_rank>  (18)
18

>  <vina_affinity_kcal_mol>  (18)
-5.9130000000000003

>  <vina_rmsd_to_crystal_angstrom>  (18)
7.1731999999999996

$$$$
CHRNA7_encenicline__hybrid_A_face_seed3301_ex32__pose19
     RDKit          3D

 38 41  0  0  0  0  0  0  0  0999 V2000
  149.3600  135.5190   92.2620 O   0  0  0  0  0  0  0  0  0  0  0  0
  148.9180  136.5650   91.9250 C   0  0  0  0  0  0  0  0  0  0  0  0
  149.8100  137.6870   91.7070 N   0  0  0  0  0  0  0  0  0  0  0  0
  151.2660  137.5110   91.9110 C   0  0  1  0  0  0  0  0  0  0  0  0
  151.9510  137.1950   90.5670 C   0  0  0  0  0  0  0  0  0  0  0  0
  152.9340  138.1410   90.2650 N   0  0  0  0  0  0  0  0  0  0  0  0
  153.8800  138.1850   91.2660 C   0  0  0  0  0  0  0  0  0  0  0  0
  153.2660  138.5500   92.5850 C   0  0  0  0  0  0  0  0  0  0  0  0
  151.8490  138.7400   92.4420 C   0  0  0  0  0  0  0  0  0  0  0  0
  151.6230  139.8110   91.4750 C   0  0  0  0  0  0  0  0  0  0  0  0
  152.3390  139.4190   90.1270 C   0  0  0  0  0  0  0  0  0  0  0  0
  147.4070  136.7190   91.7210 C   0  0  0  0  0  0  0  0  0  0  0  0
  146.5260  135.7090   91.5380 C   0  0  0  0  0  0  0  0  0  0  0  0
  145.1340  136.0090   91.3610 C   0  0  0  0  0  0  0  0  0  0  0  0
  144.1210  135.1070   91.1680 C   0  0  0  0  0  0  0  0  0  0  0  0
  142.8090  135.5540   91.0090 C   0  0  0  0  0  0  0  0  0  0  0  0
  142.5260  136.9300   91.0480 C   0  0  0  0  0  0  0  0  0  0  0  0
  143.5540  137.8560   91.2460 C   0  0  0  0  0  0  0  0  0  0  0  0
  143.1880  139.6000   91.2960 Cl  0  0  0  0  0  0  0  0  0  0  0  0
  144.8480  137.4180   91.4020 C   0  0  0  0  0  0  0  0  0  0  0  0
  146.4730  138.1870   91.6750 S   0  0  0  0  0  0  0  0  0  0  0  0
  149.4510  138.5590   91.4250 H   0  0  0  0  0  0  0  0  0  0  0  0
  151.4190  136.6832   92.6190 H   0  0  0  0  0  0  0  0  0  0  0  0
  152.4169  136.2004   90.6271 H   0  0  0  0  0  0  0  0  0  0  0  0
  151.1891  137.2197   89.7740 H   0  0  0  0  0  0  0  0  0  0  0  0
  154.3543  137.1964   91.3536 H   0  0  0  0  0  0  0  0  0  0  0  0
  154.6230  138.9534   91.0060 H   0  0  0  0  0  0  0  0  0  0  0  0
  153.4523  137.7418   93.3076 H   0  0  0  0  0  0  0  0  0  0  0  0
  153.7177  139.4874   92.9418 H   0  0  0  0  0  0  0  0  0  0  0  0
  151.3962  138.9921   93.4123 H   0  0  0  0  0  0  0  0  0  0  0  0
  150.5438  139.9336   91.3011 H   0  0  0  0  0  0  0  0  0  0  0  0
  152.0282  140.7593   91.8578 H   0  0  0  0  0  0  0  0  0  0  0  0
  151.5999  139.3938   89.3127 H   0  0  0  0  0  0  0  0  0  0  0  0
  153.1153  140.1626   89.8934 H   0  0  0  0  0  0  0  0  0  0  0  0
  146.8740  134.6656   91.5250 H   0  0  0  0  0  0  0  0  0  0  0  0
  144.3422  134.0299   91.1384 H   0  0  0  0  0  0  0  0  0  0  0  0
  141.9961  134.8295   90.8531 H   0  0  0  0  0  0  0  0  0  0  0  0
  141.4907  137.2798   90.9221 H   0  0  0  0  0  0  0  0  0  0  0  0
  1  2  2  0
  2  3  1  0
  3  4  1  0
  4  5  1  0
  5  6  1  0
  6  7  1  0
  7  8  1  0
  8  9  1  0
  9 10  1  0
 10 11  1  0
  2 12  1  0
 12 13  2  0
 13 14  1  0
 14 15  2  0
 15 16  1  0
 16 17  2  0
 17 18  1  0
 18 19  1  0
 18 20  2  0
 20 21  1  0
  9  4  1  0
 21 12  1  0
 11  6  1  0
 20 14  1  0
  3 22  1  0
  4 23  1  1
  5 24  1  0
  5 25  1  0
  7 26  1  0
  7 27  1  0
  8 28  1  0
  8 29  1  0
  9 30  1  0
 10 31  1  0
 10 32  1  0
 11 33  1  0
 11 34  1  0
 13 35  1  0
 15 36  1  0
 16 37  1  0
 17 38  1  0
M  END
>  <meeko>  (19)
{"is_sidechain": false}

>  <source_group>  (19)
CHRFAM7A at A face

>  <source_system>  (19)
CHRNA7_encenicline

>  <source_run>  (19)
hybrid_A_face_seed3301_ex32

>  <source_seed>  (19)
3301

>  <vina_pose_rank>  (19)
19

>  <vina_affinity_kcal_mol>  (19)
-5.7910000000000004

>  <vina_rmsd_to_crystal_angstrom>  (19)
9.1547000000000001

$$$$
CHRNA7_encenicline__hybrid_A_face_seed3301_ex32__pose20
     RDKit          3D

 38 41  0  0  0  0  0  0  0  0999 V2000
  144.5140  142.2850   95.1090 O   0  0  0  0  0  0  0  0  0  0  0  0
  143.6640  141.8010   94.4400 C   0  0  0  0  0  0  0  0  0  0  0  0
  142.2750  142.1340   94.6890 N   0  0  0  0  0  0  0  0  0  0  0  0
  141.9360  143.0740   95.7820 C   0  0  1  0  0  0  0  0  0  0  0  0
  140.6660  143.8680   95.4170 C   0  0  0  0  0  0  0  0  0  0  0  0
  139.6600  143.6780   96.3680 N   0  0  0  0  0  0  0  0  0  0  0  0
  140.1010  144.0620   97.6150 C   0  0  0  0  0  0  0  0  0  0  0  0
  141.3030  143.2710   98.0380 C   0  0  0  0  0  0  0  0  0  0  0  0
  141.6730  142.3350   97.0130 C   0  0  0  0  0  0  0  0  0  0  0  0
  140.5450  141.4380   96.7790 C   0  0  0  0  0  0  0  0  0  0  0  0
  139.2880  142.3120   96.4030 C   0  0  0  0  0  0  0  0  0  0  0  0
  144.0440  140.8320   93.3150 C   0  0  0  0  0  0  0  0  0  0  0  0
  144.2080  141.1560   92.0120 C   0  0  0  0  0  0  0  0  0  0  0  0
  144.5690  140.1350   91.0700 C   0  0  0  0  0  0  0  0  0  0  0  0
  144.7730  140.2990   89.7260 C   0  0  0  0  0  0  0  0  0  0  0  0
  145.1190  139.2050   88.9330 C   0  0  0  0  0  0  0  0  0  0  0  0
  145.2590  137.9330   89.5150 C   0  0  0  0  0  0  0  0  0  0  0  0
  145.0530  137.7590   90.8870 C   0  0  0  0  0  0  0  0  0  0  0  0
  145.2340  136.1430   91.6190 Cl  0  0  0  0  0  0  0  0  0  0  0  0
  144.7110  138.8360   91.6690 C   0  0  0  0  0  0  0  0  0  0  0  0
  144.3500  139.1220   93.4280 S   0  0  0  0  0  0  0  0  0  0  0  0
  141.5630  141.7390   94.1360 H   0  0  0  0  0  0  0  0  0  0  0  0
  142.7844  143.7592   95.9259 H   0  0  0  0  0  0  0  0  0  0  0  0
  140.9143  144.9384   95.3665 H   0  0  0  0  0  0  0  0  0  0  0  0
  140.2982  143.5086   94.4446 H   0  0  0  0  0  0  0  0  0  0  0  0
  140.3663  145.1292   97.5878 H   0  0  0  0  0  0  0  0  0  0  0  0
  139.2936  143.8788   98.3393 H   0  0  0  0  0  0  0  0  0  0  0  0
  142.1424  143.9577   98.2218 H   0  0  0  0  0  0  0  0  0  0  0  0
  141.0600  142.7165   98.9564 H   0  0  0  0  0  0  0  0  0  0  0  0
  142.5637  141.7655   97.3170 H   0  0  0  0  0  0  0  0  0  0  0  0
  140.7811  140.7511   95.9529 H   0  0  0  0  0  0  0  0  0  0  0  0
  140.3382  140.8452   97.6822 H   0  0  0  0  0  0  0  0  0  0  0  0
  138.9118  142.0084   95.4149 H   0  0  0  0  0  0  0  0  0  0  0  0
  138.4990  142.1646   97.1551 H   0  0  0  0  0  0  0  0  0  0  0  0
  144.0658  142.1940   91.6769 H   0  0  0  0  0  0  0  0  0  0  0  0
  144.6639  141.2946   89.2712 H   0  0  0  0  0  0  0  0  0  0  0  0
  145.2822  139.3374   87.8533 H   0  0  0  0  0  0  0  0  0  0  0  0
  145.5317  137.0710   88.8884 H   0  0  0  0  0  0  0  0  0  0  0  0
  1  2  2  0
  2  3  1  0
  3  4  1  0
  4  5  1  0
  5  6  1  0
  6  7  1  0
  7  8  1  0
  8  9  1  0
  9 10  1  0
 10 11  1  0
  2 12  1  0
 12 13  2  0
 13 14  1  0
 14 15  2  0
 15 16  1  0
 16 17  2  0
 17 18  1  0
 18 19  1  0
 18 20  2  0
 20 21  1  0
  9  4  1  0
 21 12  1  0
 11  6  1  0
 20 14  1  0
  3 22  1  0
  4 23  1  1
  5 24  1  0
  5 25  1  0
  7 26  1  0
  7 27  1  0
  8 28  1  0
  8 29  1  0
  9 30  1  0
 10 31  1  0
 10 32  1  0
 11 33  1  0
 11 34  1  0
 13 35  1  0
 15 36  1  0
 16 37  1  0
 17 38  1  0
M  END
>  <meeko>  (20)
{"is_sidechain": false}

>  <source_group>  (20)
CHRFAM7A at A face

>  <source_system>  (20)
CHRNA7_encenicline

>  <source_run>  (20)
hybrid_A_face_seed3301_ex32

>  <source_seed>  (20)
3301

>  <vina_pose_rank>  (20)
20

>  <vina_affinity_kcal_mol>  (20)
-5.7690000000000001

>  <vina_rmsd_to_crystal_angstrom>  (20)
6.1410999999999998

$$$$
