CHRNA7_encenicline__hybrid_A_face_seed3301_ex32__pose01


 22 25  0  0  0  0  0  0  0  0999 V2000
  142.0230  140.3990   90.9780 O   0  0  0  0  0  0  0  0  0  0  0  0
  142.1610  139.2450   90.7490 C   0  0  0  0  0  0  0  0  0  0  0  0
  141.0150  138.4460   90.3600 N   0  0  0  0  0  0  0  0  0  0  0  0
  141.1210  137.4870   90.1670 H   0  0  0  0  0  0  0  0  0  0  0  0
  143.5510  138.6100   90.8640 C   0  0  0  0  0  0  0  0  0  0  0  0
  143.8070  137.3000   91.0890 C   0  0  0  0  0  0  0  0  0  0  0  0
  145.1670  136.8510   91.1690 C   0  0  0  0  0  0  0  0  0  0  0  0
  145.5920  135.5670   91.3890 C   0  0  0  0  0  0  0  0  0  0  0  0
  146.9560  135.2820   91.4430 C   0  0  0  0  0  0  0  0  0  0  0  0
  147.8960  136.3130   91.2720 C   0  0  0  0  0  0  0  0  0  0  0  0
  147.4700  137.6250   91.0460 C   0  0  0  0  0  0  0  0  0  0  0  0
  148.6670  138.9280   90.8280 Cl  0  0  0  0  0  0  0  0  0  0  0  0
  146.1260  137.9080   90.9930 C   0  0  0  0  0  0  0  0  0  0  0  0
  145.1020  139.3890   90.7370 S   0  0  0  0  0  0  0  0  0  0  0  0
  139.6830  139.0850   90.2570 C   0  0  0  0  0  0  0  0  0  0  0  0
  139.3810  139.4370   88.7870 C   0  0  0  0  0  0  0  0  0  0  0  0
  138.2120  138.8110   88.3460 N   0  0  0  0  0  0  0  0  0  0  0  0
  137.1450  139.1780   89.1370 C   0  0  0  0  0  0  0  0  0  0  0  0
  137.3700  138.7990   90.5710 C   0  0  0  0  0  0  0  0  0  0  0  0
  138.6500  138.1670   90.7280 C   0  0  0  0  0  0  0  0  0  0  0  0
  138.6800  136.9720   89.8870 C   0  0  0  0  0  0  0  0  0  0  0  0
  138.3740  137.4050   88.4030 C   0  0  0  0  0  0  0  0  0  0  0  0
  1  2  2  0
  2  3  1  0
  3 15  1  0
 15 16  1  0
 16 17  1  0
 17 18  1  0
 18 19  1  0
 19 20  1  0
 20 21  1  0
 21 22  1  0
  2  5  1  0
  5  6  2  0
  6  7  1  0
  7  8  2  0
  8  9  1  0
  9 10  2  0
 10 11  1  0
 11 12  1  0
 11 13  2  0
 13 14  1  0
 20 15  1  0
 14  5  1  0
 22 17  1  0
 13  7  1  0
  3  4  1  0
M  END
> <meeko>
{"is_sidechain": false}

> <source_group>
CHRFAM7A at A face

> <source_system>
CHRNA7_encenicline

> <source_run>
hybrid_A_face_seed3301_ex32

> <source_seed>
3301

> <vina_pose_rank>
1

> <vina_affinity_kcal_mol>
-7.5369999999999999

> <vina_rmsd_to_crystal_angstrom>
2.0284

> <minimizedAffinity>
-7.53660

> <CNNscore>
0.8043474555

> <CNNaffinity>
6.5974202156

> <CNN_VS>
5.3066182137

> <CNNaffinity_variance>
0.2594775856

$$$$
CHRNA7_encenicline__hybrid_A_face_seed3301_ex32__pose02


 22 25  0  0  0  0  0  0  0  0999 V2000
  142.3570  138.1480   90.8500 O   0  0  0  0  0  0  0  0  0  0  0  0
  142.4020  139.2130   90.3360 C   0  0  0  0  0  0  0  0  0  0  0  0
  141.1740  139.8680   89.9270 N   0  0  0  0  0  0  0  0  0  0  0  0
  141.2030  140.7550   89.5010 H   0  0  0  0  0  0  0  0  0  0  0  0
  143.7580  139.8900   90.1110 C   0  0  0  0  0  0  0  0  0  0  0  0
  144.3190  140.1600   88.9100 C   0  0  0  0  0  0  0  0  0  0  0  0
  145.6010  140.8040   88.8570 C   0  0  0  0  0  0  0  0  0  0  0  0
  146.2980  141.1450   87.7290 C   0  0  0  0  0  0  0  0  0  0  0  0
  147.5410  141.7690   87.8380 C   0  0  0  0  0  0  0  0  0  0  0  0
  148.0790  142.0460   89.1060 C   0  0  0  0  0  0  0  0  0  0  0  0
  147.3720  141.7010   90.2620 C   0  0  0  0  0  0  0  0  0  0  0  0
  148.0580  142.0580   91.8690 Cl  0  0  0  0  0  0  0  0  0  0  0  0
  146.1470  141.0870   90.1570 C   0  0  0  0  0  0  0  0  0  0  0  0
  144.8850  140.4640   91.3080 S   0  0  0  0  0  0  0  0  0  0  0  0
  139.8770  139.1920   90.1560 C   0  0  0  0  0  0  0  0  0  0  0  0
  138.7980  140.2330   90.5170 C   0  0  0  0  0  0  0  0  0  0  0  0
  137.7330  140.1920   89.6140 N   0  0  0  0  0  0  0  0  0  0  0  0
  137.1710  138.9340   89.5920 C   0  0  0  0  0  0  0  0  0  0  0  0
  138.1730  137.8940   89.1850 C   0  0  0  0  0  0  0  0  0  0  0  0
  139.4530  138.4990   88.9430 C   0  0  0  0  0  0  0  0  0  0  0  0
  139.3020  139.4870   87.8780 C   0  0  0  0  0  0  0  0  0  0  0  0
  138.1960  140.5200   88.3160 C   0  0  0  0  0  0  0  0  0  0  0  0
  1  2  2  0
  2  3  1  0
  3 15  1  0
 15 16  1  0
 16 17  1  0
 17 18  1  0
 18 19  1  0
 19 20  1  0
 20 21  1  0
 21 22  1  0
  2  5  1  0
  5  6  2  0
  6  7  1  0
  7  8  2  0
  8  9  1  0
  9 10  2  0
 10 11  1  0
 11 12  1  0
 11 13  2  0
 13 14  1  0
 20 15  1  0
 14  5  1  0
 22 17  1  0
 13  7  1  0
  3  4  1  0
M  END
> <meeko>
{"is_sidechain": false}

> <source_group>
CHRFAM7A at A face

> <source_system>
CHRNA7_encenicline

> <source_run>
hybrid_A_face_seed3301_ex32

> <source_seed>
3301

> <vina_pose_rank>
2

> <vina_affinity_kcal_mol>
-7.5140000000000002

> <vina_rmsd_to_crystal_angstrom>
4.4680999999999997

> <minimizedAffinity>
-7.50606

> <CNNscore>
0.5409826636

> <CNNaffinity>
5.9706969261

> <CNN_VS>
3.2300434113

> <CNNaffinity_variance>
0.0849103555

$$$$
CHRNA7_encenicline__hybrid_A_face_seed3301_ex32__pose03


 22 25  0  0  0  0  0  0  0  0999 V2000
  142.8150  138.7720   91.1140 O   0  0  0  0  0  0  0  0  0  0  0  0
  142.6750  139.4680   90.1660 C   0  0  0  0  0  0  0  0  0  0  0  0
  141.3400  139.7900   89.7000 N   0  0  0  0  0  0  0  0  0  0  0  0
  141.2150  140.3700   88.9150 H   0  0  0  0  0  0  0  0  0  0  0  0
  143.9070  140.0260   89.4460 C   0  0  0  0  0  0  0  0  0  0  0  0
  144.9390  140.6770   90.0310 C   0  0  0  0  0  0  0  0  0  0  0  0
  146.0300  141.1420   89.2230 C   0  0  0  0  0  0  0  0  0  0  0  0
  147.1420  141.8120   89.6590 C   0  0  0  0  0  0  0  0  0  0  0  0
  148.1240  142.2030   88.7480 C   0  0  0  0  0  0  0  0  0  0  0  0
  147.9720  141.9100   87.3820 C   0  0  0  0  0  0  0  0  0  0  0  0
  146.8390  141.2250   86.9310 C   0  0  0  0  0  0  0  0  0  0  0  0
  146.6520  140.8540   85.1970 Cl  0  0  0  0  0  0  0  0  0  0  0  0
  145.8710  140.8390   87.8260 C   0  0  0  0  0  0  0  0  0  0  0  0
  144.2790  139.9640   87.7470 S   0  0  0  0  0  0  0  0  0  0  0  0
  140.1660  139.2380   90.4140 C   0  0  0  0  0  0  0  0  0  0  0  0
  139.0870  140.3270   90.5720 C   0  0  0  0  0  0  0  0  0  0  0  0
  137.8840  139.9380   89.9780 N   0  0  0  0  0  0  0  0  0  0  0  0
  137.4350  138.7590   90.5330 C   0  0  0  0  0  0  0  0  0  0  0  0
  138.4300  137.6530   90.3490 C   0  0  0  0  0  0  0  0  0  0  0  0
  139.5910  138.1330   89.6520 C   0  0  0  0  0  0  0  0  0  0  0  0
  139.1680  138.6440   88.3510 C   0  0  0  0  0  0  0  0  0  0  0  0
  138.0760  139.7560   88.5870 C   0  0  0  0  0  0  0  0  0  0  0  0
  1  2  2  0
  2  3  1  0
  3 15  1  0
 15 16  1  0
 16 17  1  0
 17 18  1  0
 18 19  1  0
 19 20  1  0
 20 21  1  0
 21 22  1  0
  2  5  1  0
  5  6  2  0
  6  7  1  0
  7  8  2  0
  8  9  1  0
  9 10  2  0
 10 11  1  0
 11 12  1  0
 11 13  2  0
 13 14  1  0
 20 15  1  0
 14  5  1  0
 22 17  1  0
 13  7  1  0
  3  4  1  0
M  END
> <meeko>
{"is_sidechain": false}

> <source_group>
CHRFAM7A at A face

> <source_system>
CHRNA7_encenicline

> <source_run>
hybrid_A_face_seed3301_ex32

> <source_seed>
3301

> <vina_pose_rank>
3

> <vina_affinity_kcal_mol>
-7.4409999999999998

> <vina_rmsd_to_crystal_angstrom>
4.9132999999999996

> <minimizedAffinity>
-7.44251

> <CNNscore>
0.7432137132

> <CNNaffinity>
6.3702778816

> <CNN_VS>
4.7344779968

> <CNNaffinity_variance>
0.2241824716

$$$$
CHRNA7_encenicline__hybrid_A_face_seed3301_ex32__pose04


 22 25  0  0  0  0  0  0  0  0999 V2000
  142.0100  140.6370   91.1020 O   0  0  0  0  0  0  0  0  0  0  0  0
  142.2040  139.5010   90.8320 C   0  0  0  0  0  0  0  0  0  0  0  0
  141.1090  138.6770   90.3560 N   0  0  0  0  0  0  0  0  0  0  0  0
  141.2620  137.7320   90.1270 H   0  0  0  0  0  0  0  0  0  0  0  0
  143.6110  138.9140   90.9850 C   0  0  0  0  0  0  0  0  0  0  0  0
  144.7590  139.4870   90.5550 C   0  0  0  0  0  0  0  0  0  0  0  0
  146.0080  138.8160   90.7720 C   0  0  0  0  0  0  0  0  0  0  0  0
  147.2500  139.2600   90.4030 C   0  0  0  0  0  0  0  0  0  0  0  0
  148.3800  138.4910   90.6830 C   0  0  0  0  0  0  0  0  0  0  0  0
  148.2440  137.2590   91.3450 C   0  0  0  0  0  0  0  0  0  0  0  0
  146.9790  136.8000   91.7270 C   0  0  0  0  0  0  0  0  0  0  0  0
  146.8130  135.2370   92.5690 Cl  0  0  0  0  0  0  0  0  0  0  0  0
  145.8650  137.5560   91.4510 C   0  0  0  0  0  0  0  0  0  0  0  0
  144.0740  137.4090   91.7270 S   0  0  0  0  0  0  0  0  0  0  0  0
  139.7590  139.2690   90.2180 C   0  0  0  0  0  0  0  0  0  0  0  0
  139.4460  139.5220   88.7290 C   0  0  0  0  0  0  0  0  0  0  0  0
  138.2960  138.8370   88.3300 N   0  0  0  0  0  0  0  0  0  0  0  0
  137.2190  139.2200   89.1000 C   0  0  0  0  0  0  0  0  0  0  0  0
  137.4560  138.9350   90.5540 C   0  0  0  0  0  0  0  0  0  0  0  0
  138.7540  138.3510   90.7450 C   0  0  0  0  0  0  0  0  0  0  0  0
  138.8180  137.1090   89.9790 C   0  0  0  0  0  0  0  0  0  0  0  0
  138.4990  137.4420   88.4720 C   0  0  0  0  0  0  0  0  0  0  0  0
  1  2  2  0
  2  3  1  0
  3 15  1  0
 15 16  1  0
 16 17  1  0
 17 18  1  0
 18 19  1  0
 19 20  1  0
 20 21  1  0
 21 22  1  0
  2  5  1  0
  5  6  2  0
  6  7  1  0
  7  8  2  0
  8  9  1  0
  9 10  2  0
 10 11  1  0
 11 12  1  0
 11 13  2  0
 13 14  1  0
 20 15  1  0
 14  5  1  0
 22 17  1  0
 13  7  1  0
  3  4  1  0
M  END
> <meeko>
{"is_sidechain": false}

> <source_group>
CHRFAM7A at A face

> <source_system>
CHRNA7_encenicline

> <source_run>
hybrid_A_face_seed3301_ex32

> <source_seed>
3301

> <vina_pose_rank>
4

> <vina_affinity_kcal_mol>
-7.0529999999999999

> <vina_rmsd_to_crystal_angstrom>
2.6928000000000001

> <minimizedAffinity>
-7.05860

> <CNNscore>
0.9157171249

> <CNNaffinity>
6.6662497520

> <CNN_VS>
6.1043992043

> <CNNaffinity_variance>
0.3122773170

$$$$
CHRNA7_encenicline__hybrid_A_face_seed3301_ex32__pose05


 22 25  0  0  0  0  0  0  0  0999 V2000
  144.6400  139.4520   92.0860 O   0  0  0  0  0  0  0  0  0  0  0  0
  144.2700  138.4880   91.5070 C   0  0  0  0  0  0  0  0  0  0  0  0
  145.1820  137.3810   91.2920 N   0  0  0  0  0  0  0  0  0  0  0  0
  144.8810  136.5750   90.8140 H   0  0  0  0  0  0  0  0  0  0  0  0
  142.8270  138.4200   90.9930 C   0  0  0  0  0  0  0  0  0  0  0  0
  142.0620  137.3050   90.9270 C   0  0  0  0  0  0  0  0  0  0  0  0
  140.7220  137.3980   90.4220 C   0  0  0  0  0  0  0  0  0  0  0  0
  139.8250  136.3720   90.2930 C   0  0  0  0  0  0  0  0  0  0  0  0
  138.5500  136.6180   89.7810 C   0  0  0  0  0  0  0  0  0  0  0  0
  138.1870  137.9200   89.3970 C   0  0  0  0  0  0  0  0  0  0  0  0
  139.0980  138.9730   89.5270 C   0  0  0  0  0  0  0  0  0  0  0  0
  138.6310  140.6230   89.0410 Cl  0  0  0  0  0  0  0  0  0  0  0  0
  140.3540  138.7330   90.0310 C   0  0  0  0  0  0  0  0  0  0  0  0
  141.8410  139.7180   90.3840 S   0  0  0  0  0  0  0  0  0  0  0  0
  146.5700  137.4730   91.7990 C   0  0  0  0  0  0  0  0  0  0  0  0
  147.0110  136.1110   92.3720 C   0  0  0  0  0  0  0  0  0  0  0  0
  148.1480  135.6310   91.7180 N   0  0  0  0  0  0  0  0  0  0  0  0
  149.1820  136.5350   91.8280 C   0  0  0  0  0  0  0  0  0  0  0  0
  148.8180  137.8600   91.2260 C   0  0  0  0  0  0  0  0  0  0  0  0
  147.4780  137.8250   90.7110 C   0  0  0  0  0  0  0  0  0  0  0  0
  147.4020  136.7800   89.6940 C   0  0  0  0  0  0  0  0  0  0  0  0
  147.8560  135.4190   90.3480 C   0  0  0  0  0  0  0  0  0  0  0  0
  1  2  2  0
  2  3  1  0
  3 15  1  0
 15 16  1  0
 16 17  1  0
 17 18  1  0
 18 19  1  0
 19 20  1  0
 20 21  1  0
 21 22  1  0
  2  5  1  0
  5  6  2  0
  6  7  1  0
  7  8  2  0
  8  9  1  0
  9 10  2  0
 10 11  1  0
 11 12  1  0
 11 13  2  0
 13 14  1  0
 20 15  1  0
 14  5  1  0
 22 17  1  0
 13  7  1  0
  3  4  1  0
M  END
> <meeko>
{"is_sidechain": false}

> <source_group>
CHRFAM7A at A face

> <source_system>
CHRNA7_encenicline

> <source_run>
hybrid_A_face_seed3301_ex32

> <source_seed>
3301

> <vina_pose_rank>
5

> <vina_affinity_kcal_mol>
-6.6020000000000003

> <vina_rmsd_to_crystal_angstrom>
7.6784999999999997

> <minimizedAffinity>
-6.60919

> <CNNscore>
0.2272095978

> <CNNaffinity>
4.8796625137

> <CNN_VS>
1.1087061167

> <CNNaffinity_variance>
0.4321347177

$$$$
CHRNA7_encenicline__hybrid_A_face_seed3301_ex32__pose06


 22 25  0  0  0  0  0  0  0  0999 V2000
  142.2640  137.8250   90.8620 O   0  0  0  0  0  0  0  0  0  0  0  0
  142.3250  138.9910   90.6640 C   0  0  0  0  0  0  0  0  0  0  0  0
  141.1330  139.7180   90.2720 N   0  0  0  0  0  0  0  0  0  0  0  0
  141.1750  140.6880   90.1080 H   0  0  0  0  0  0  0  0  0  0  0  0
  143.6640  139.7190   90.8270 C   0  0  0  0  0  0  0  0  0  0  0  0
  144.2910  139.9690   92.0000 C   0  0  0  0  0  0  0  0  0  0  0  0
  145.5470  140.6630   91.9940 C   0  0  0  0  0  0  0  0  0  0  0  0
  146.3050  140.9890   93.0880 C   0  0  0  0  0  0  0  0  0  0  0  0
  147.5120  141.6700   92.9230 C   0  0  0  0  0  0  0  0  0  0  0  0
  147.9500  142.0220   91.6350 C   0  0  0  0  0  0  0  0  0  0  0  0
  147.1810  141.6910   90.5150 C   0  0  0  0  0  0  0  0  0  0  0  0
  147.7440  142.1380   88.8830 Cl  0  0  0  0  0  0  0  0  0  0  0  0
  145.9930  141.0200   90.6740 C   0  0  0  0  0  0  0  0  0  0  0  0
  144.6830  140.3870   89.5840 S   0  0  0  0  0  0  0  0  0  0  0  0
  139.8520  138.9900   90.1220 C   0  0  0  0  0  0  0  0  0  0  0  0
  138.6850  139.8780   90.5970 C   0  0  0  0  0  0  0  0  0  0  0  0
  137.7530  140.0770   89.5750 N   0  0  0  0  0  0  0  0  0  0  0  0
  137.2630  138.8680   89.1310 C   0  0  0  0  0  0  0  0  0  0  0  0
  138.3600  137.9930   88.6030 C   0  0  0  0  0  0  0  0  0  0  0  0
  139.6290  138.6550   88.7190 C   0  0  0  0  0  0  0  0  0  0  0  0
  139.5720  139.8980   87.9530 C   0  0  0  0  0  0  0  0  0  0  0  0
  138.3670  140.7570   88.4950 C   0  0  0  0  0  0  0  0  0  0  0  0
  1  2  2  0
  2  3  1  0
  3 15  1  0
 15 16  1  0
 16 17  1  0
 17 18  1  0
 18 19  1  0
 19 20  1  0
 20 21  1  0
 21 22  1  0
  2  5  1  0
  5  6  2  0
  6  7  1  0
  7  8  2  0
  8  9  1  0
  9 10  2  0
 10 11  1  0
 11 12  1  0
 11 13  2  0
 13 14  1  0
 20 15  1  0
 14  5  1  0
 22 17  1  0
 13  7  1  0
  3  4  1  0
M  END
> <meeko>
{"is_sidechain": false}

> <source_group>
CHRFAM7A at A face

> <source_system>
CHRNA7_encenicline

> <source_run>
hybrid_A_face_seed3301_ex32

> <source_seed>
3301

> <vina_pose_rank>
6

> <vina_affinity_kcal_mol>
-6.4530000000000003

> <vina_rmsd_to_crystal_angstrom>
4.2179000000000002

> <minimizedAffinity>
-6.46529

> <CNNscore>
0.4948983192

> <CNNaffinity>
6.0676345825

> <CNN_VS>
3.0028622150

> <CNNaffinity_variance>
0.0787518099

$$$$
CHRNA7_encenicline__hybrid_A_face_seed3301_ex32__pose07


 22 25  0  0  0  0  0  0  0  0999 V2000
  144.4810  140.1360   90.4170 O   0  0  0  0  0  0  0  0  0  0  0  0
  144.0980  139.0370   90.6360 C   0  0  0  0  0  0  0  0  0  0  0  0
  145.0450  138.0040   91.0060 N   0  0  0  0  0  0  0  0  0  0  0  0
  144.7350  137.0890   91.1920 H   0  0  0  0  0  0  0  0  0  0  0  0
  142.6020  138.7210   90.5290 C   0  0  0  0  0  0  0  0  0  0  0  0
  141.6210  139.6130   90.2600 C   0  0  0  0  0  0  0  0  0  0  0  0
  140.2590  139.1660   90.1890 C   0  0  0  0  0  0  0  0  0  0  0  0
  139.1580  139.9370   89.9260 C   0  0  0  0  0  0  0  0  0  0  0  0
  137.8900  139.3560   89.8910 C   0  0  0  0  0  0  0  0  0  0  0  0
  137.7420  137.9790   90.1260 C   0  0  0  0  0  0  0  0  0  0  0  0
  138.8620  137.1850   90.3940 C   0  0  0  0  0  0  0  0  0  0  0  0
  138.6680  135.4380   90.6880 Cl  0  0  0  0  0  0  0  0  0  0  0  0
  140.1120  137.7550   90.4290 C   0  0  0  0  0  0  0  0  0  0  0  0
  141.8120  137.1810   90.7200 S   0  0  0  0  0  0  0  0  0  0  0  0
  146.4850  138.3370   91.1020 C   0  0  0  0  0  0  0  0  0  0  0  0
  147.1510  137.4780   92.1950 C   0  0  0  0  0  0  0  0  0  0  0  0
  148.1980  136.7150   91.6710 N   0  0  0  0  0  0  0  0  0  0  0  0
  149.1420  137.5330   91.0880 C   0  0  0  0  0  0  0  0  0  0  0  0
  148.5490  138.3460   89.9750 C   0  0  0  0  0  0  0  0  0  0  0  0
  147.1490  138.0570   89.8330 C   0  0  0  0  0  0  0  0  0  0  0  0
  147.0010  136.6330   89.5420 C   0  0  0  0  0  0  0  0  0  0  0  0
  147.6930  135.8170   90.6990 C   0  0  0  0  0  0  0  0  0  0  0  0
  1  2  2  0
  2  3  1  0
  3 15  1  0
 15 16  1  0
 16 17  1  0
 17 18  1  0
 18 19  1  0
 19 20  1  0
 20 21  1  0
 21 22  1  0
  2  5  1  0
  5  6  2  0
  6  7  1  0
  7  8  2  0
  8  9  1  0
  9 10  2  0
 10 11  1  0
 11 12  1  0
 11 13  2  0
 13 14  1  0
 20 15  1  0
 14  5  1  0
 22 17  1  0
 13  7  1  0
  3  4  1  0
M  END
> <meeko>
{"is_sidechain": false}

> <source_group>
CHRFAM7A at A face

> <source_system>
CHRNA7_encenicline

> <source_run>
hybrid_A_face_seed3301_ex32

> <source_seed>
3301

> <vina_pose_rank>
7

> <vina_affinity_kcal_mol>
-6.4390000000000001

> <vina_rmsd_to_crystal_angstrom>
7.5861000000000001

> <minimizedAffinity>
-6.46899

> <CNNscore>
0.3561706543

> <CNNaffinity>
5.6676135063

> <CNN_VS>
2.0186376572

> <CNNaffinity_variance>
0.2571740150

$$$$
CHRNA7_encenicline__hybrid_A_face_seed3301_ex32__pose08


 22 25  0  0  0  0  0  0  0  0999 V2000
  144.1210  142.0440   92.5970 O   0  0  0  0  0  0  0  0  0  0  0  0
  143.8450  141.0890   93.2410 C   0  0  0  0  0  0  0  0  0  0  0  0
  142.9460  141.2190   94.3720 N   0  0  0  0  0  0  0  0  0  0  0  0
  142.7100  140.4300   94.9110 H   0  0  0  0  0  0  0  0  0  0  0  0
  144.4400  139.7260   92.8710 C   0  0  0  0  0  0  0  0  0  0  0  0
  143.7370  138.6220   92.5310 C   0  0  0  0  0  0  0  0  0  0  0  0
  144.4360  137.4120   92.2050 C   0  0  0  0  0  0  0  0  0  0  0  0
  143.8760  136.2160   91.8420 C   0  0  0  0  0  0  0  0  0  0  0  0
  144.6910  135.1210   91.5540 C   0  0  0  0  0  0  0  0  0  0  0  0
  146.0880  135.2440   91.6380 C   0  0  0  0  0  0  0  0  0  0  0  0
  146.6670  136.4620   92.0070 C   0  0  0  0  0  0  0  0  0  0  0  0
  148.4410  136.6130   92.1100 Cl  0  0  0  0  0  0  0  0  0  0  0  0
  145.8660  137.5420   92.2910 C   0  0  0  0  0  0  0  0  0  0  0  0
  146.1180  139.2700   92.7960 S   0  0  0  0  0  0  0  0  0  0  0  0
  142.3850  142.5470   94.7080 C   0  0  0  0  0  0  0  0  0  0  0  0
  140.8990  142.6070   94.3040 C   0  0  0  0  0  0  0  0  0  0  0  0
  140.0860  142.8910   95.4050 N   0  0  0  0  0  0  0  0  0  0  0  0
  140.4570  144.0880   95.9790 C   0  0  0  0  0  0  0  0  0  0  0  0
  141.8840  144.0530   96.4430 C   0  0  0  0  0  0  0  0  0  0  0  0
  142.4770  142.7790   96.1460 C   0  0  0  0  0  0  0  0  0  0  0  0
  141.7070  141.7420   96.8290 C   0  0  0  0  0  0  0  0  0  0  0  0
  140.2050  141.8560   96.3640 C   0  0  0  0  0  0  0  0  0  0  0  0
  1  2  2  0
  2  3  1  0
  3 15  1  0
 15 16  1  0
 16 17  1  0
 17 18  1  0
 18 19  1  0
 19 20  1  0
 20 21  1  0
 21 22  1  0
  2  5  1  0
  5  6  2  0
  6  7  1  0
  7  8  2  0
  8  9  1  0
  9 10  2  0
 10 11  1  0
 11 12  1  0
 11 13  2  0
 13 14  1  0
 20 15  1  0
 14  5  1  0
 22 17  1  0
 13  7  1  0
  3  4  1  0
M  END
> <meeko>
{"is_sidechain": false}

> <source_group>
CHRFAM7A at A face

> <source_system>
CHRNA7_encenicline

> <source_run>
hybrid_A_face_seed3301_ex32

> <source_seed>
3301

> <vina_pose_rank>
8

> <vina_affinity_kcal_mol>
-6.335

> <vina_rmsd_to_crystal_angstrom>
4.9237000000000002

> <minimizedAffinity>
-6.33672

> <CNNscore>
0.1836306155

> <CNNaffinity>
5.0318107605

> <CNN_VS>
0.9239944816

> <CNNaffinity_variance>
0.6022784114

$$$$
CHRNA7_encenicline__hybrid_A_face_seed3301_ex32__pose09


 22 25  0  0  0  0  0  0  0  0999 V2000
  146.3210  140.4260   92.6790 O   0  0  0  0  0  0  0  0  0  0  0  0
  145.2290  139.9810   92.5730 C   0  0  0  0  0  0  0  0  0  0  0  0
  145.0330  138.7050   91.9120 N   0  0  0  0  0  0  0  0  0  0  0  0
  144.1290  138.3270   91.8220 H   0  0  0  0  0  0  0  0  0  0  0  0
  144.0360  140.7570   93.1400 C   0  0  0  0  0  0  0  0  0  0  0  0
  142.9590  141.1790   92.4360 C   0  0  0  0  0  0  0  0  0  0  0  0
  141.9140  141.8960   93.1080 C   0  0  0  0  0  0  0  0  0  0  0  0
  140.7660  142.3860   92.5430 C   0  0  0  0  0  0  0  0  0  0  0  0
  139.8370  143.0690   93.3290 C   0  0  0  0  0  0  0  0  0  0  0  0
  140.0790  143.2550   94.7010 C   0  0  0  0  0  0  0  0  0  0  0  0
  141.2490  142.7560   95.2840 C   0  0  0  0  0  0  0  0  0  0  0  0
  141.5500  142.9930   97.0250 Cl  0  0  0  0  0  0  0  0  0  0  0  0
  142.1650  142.0840   94.5110 C   0  0  0  0  0  0  0  0  0  0  0  0
  143.7720  141.2770   94.7800 S   0  0  0  0  0  0  0  0  0  0  0  0
  146.2030  137.9760   91.3740 C   0  0  0  0  0  0  0  0  0  0  0  0
  146.6770  136.9190   92.3910 C   0  0  0  0  0  0  0  0  0  0  0  0
  146.6510  135.6360   91.8380 N   0  0  0  0  0  0  0  0  0  0  0  0
  147.4450  135.5830   90.7130 C   0  0  0  0  0  0  0  0  0  0  0  0
  146.9820  136.5550   89.6690 C   0  0  0  0  0  0  0  0  0  0  0  0
  145.8390  137.2880   90.1380 C   0  0  0  0  0  0  0  0  0  0  0  0
  144.7730  136.3360   90.4390 C   0  0  0  0  0  0  0  0  0  0  0  0
  145.3210  135.2960   91.4880 C   0  0  0  0  0  0  0  0  0  0  0  0
  1  2  2  0
  2  3  1  0
  3 15  1  0
 15 16  1  0
 16 17  1  0
 17 18  1  0
 18 19  1  0
 19 20  1  0
 20 21  1  0
 21 22  1  0
  2  5  1  0
  5  6  2  0
  6  7  1  0
  7  8  2  0
  8  9  1  0
  9 10  2  0
 10 11  1  0
 11 12  1  0
 11 13  2  0
 13 14  1  0
 20 15  1  0
 14  5  1  0
 22 17  1  0
 13  7  1  0
  3  4  1  0
M  END
> <meeko>
{"is_sidechain": false}

> <source_group>
CHRFAM7A at A face

> <source_system>
CHRNA7_encenicline

> <source_run>
hybrid_A_face_seed3301_ex32

> <source_seed>
3301

> <vina_pose_rank>
9

> <vina_affinity_kcal_mol>
-6.29

> <vina_rmsd_to_crystal_angstrom>
7.8372000000000002

> <minimizedAffinity>
-6.29881

> <CNNscore>
0.0839018375

> <CNNaffinity>
4.2605443001

> <CNN_VS>
0.3574675024

> <CNNaffinity_variance>
0.3708736002

$$$$
CHRNA7_encenicline__hybrid_A_face_seed3301_ex32__pose10


 22 25  0  0  0  0  0  0  0  0999 V2000
  144.6660  139.0530   91.6140 O   0  0  0  0  0  0  0  0  0  0  0  0
  144.0950  139.2410   90.5930 C   0  0  0  0  0  0  0  0  0  0  0  0
  144.8000  139.8280   89.4700 N   0  0  0  0  0  0  0  0  0  0  0  0
  144.3330  139.9850   88.6180 H   0  0  0  0  0  0  0  0  0  0  0  0
  142.6160  138.8570   90.4710 C   0  0  0  0  0  0  0  0  0  0  0  0
  141.6060  139.6940   90.1360 C   0  0  0  0  0  0  0  0  0  0  0  0
  140.2660  139.1870   90.0590 C   0  0  0  0  0  0  0  0  0  0  0  0
  139.1410  139.8970   89.7350 C   0  0  0  0  0  0  0  0  0  0  0  0
  137.8990  139.2630   89.7030 C   0  0  0  0  0  0  0  0  0  0  0  0
  137.8010  137.8940   90.0040 C   0  0  0  0  0  0  0  0  0  0  0  0
  138.9460  137.1620   90.3350 C   0  0  0  0  0  0  0  0  0  0  0  0
  138.8160  135.4250   90.7150 Cl  0  0  0  0  0  0  0  0  0  0  0  0
  140.1710  137.7850   90.3680 C   0  0  0  0  0  0  0  0  0  0  0  0
  141.8850  137.2980   90.7240 S   0  0  0  0  0  0  0  0  0  0  0  0
  146.2280  140.1890   89.6160 C   0  0  0  0  0  0  0  0  0  0  0  0
  147.1160  139.0490   89.0780 C   0  0  0  0  0  0  0  0  0  0  0  0
  147.9490  139.4980   88.0500 N   0  0  0  0  0  0  0  0  0  0  0  0
  148.7440  140.5320   88.4940 C   0  0  0  0  0  0  0  0  0  0  0  0
  147.9200  141.6910   88.9720 C   0  0  0  0  0  0  0  0  0  0  0  0
  146.5200  141.3950   88.8470 C   0  0  0  0  0  0  0  0  0  0  0  0
  146.2300  141.1250   87.4410 C   0  0  0  0  0  0  0  0  0  0  0  0
  147.1620  139.9480   86.9610 C   0  0  0  0  0  0  0  0  0  0  0  0
  1  2  2  0
  2  3  1  0
  3 15  1  0
 15 16  1  0
 16 17  1  0
 17 18  1  0
 18 19  1  0
 19 20  1  0
 20 21  1  0
 21 22  1  0
  2  5  1  0
  5  6  2  0
  6  7  1  0
  7  8  2  0
  8  9  1  0
  9 10  2  0
 10 11  1  0
 11 12  1  0
 11 13  2  0
 13 14  1  0
 20 15  1  0
 14  5  1  0
 22 17  1  0
 13  7  1  0
  3  4  1  0
M  END
> <meeko>
{"is_sidechain": false}

> <source_group>
CHRFAM7A at A face

> <source_system>
CHRNA7_encenicline

> <source_run>
hybrid_A_face_seed3301_ex32

> <source_seed>
3301

> <vina_pose_rank>
10

> <vina_affinity_kcal_mol>
-6.2800000000000002

> <vina_rmsd_to_crystal_angstrom>
7.0320999999999998

> <minimizedAffinity>
-6.29736

> <CNNscore>
0.5257216096

> <CNNaffinity>
5.9281291962

> <CNN_VS>
3.1165456772

> <CNNaffinity_variance>
0.1199626327

$$$$
CHRNA7_encenicline__hybrid_A_face_seed3301_ex32__pose11


 22 25  0  0  0  0  0  0  0  0999 V2000
  143.3420  135.4770   91.3440 O   0  0  0  0  0  0  0  0  0  0  0  0
  143.3720  136.5670   90.8820 C   0  0  0  0  0  0  0  0  0  0  0  0
  144.6450  137.1680   90.5360 N   0  0  0  0  0  0  0  0  0  0  0  0
  144.6780  138.0730   90.1500 H   0  0  0  0  0  0  0  0  0  0  0  0
  142.0620  137.3300   90.6530 C   0  0  0  0  0  0  0  0  0  0  0  0
  140.8560  136.7720   90.3970 C   0  0  0  0  0  0  0  0  0  0  0  0
  139.7130  137.6190   90.2050 C   0  0  0  0  0  0  0  0  0  0  0  0
  138.4310  137.2140   89.9420 C   0  0  0  0  0  0  0  0  0  0  0  0
  137.4200  138.1610   89.7780 C   0  0  0  0  0  0  0  0  0  0  0  0
  137.7160  139.5310   89.8830 C   0  0  0  0  0  0  0  0  0  0  0  0
  139.0220  139.9500   90.1530 C   0  0  0  0  0  0  0  0  0  0  0  0
  139.3910  141.6890   90.2860 Cl  0  0  0  0  0  0  0  0  0  0  0  0
  140.0200  139.0200   90.3140 C   0  0  0  0  0  0  0  0  0  0  0  0
  141.8040  139.0510   90.6630 S   0  0  0  0  0  0  0  0  0  0  0  0
  145.8950  136.4090   90.7680 C   0  0  0  0  0  0  0  0  0  0  0  0
  146.9220  136.7390   89.6660 C   0  0  0  0  0  0  0  0  0  0  0  0
  148.0990  137.2590   90.2100 N   0  0  0  0  0  0  0  0  0  0  0  0
  148.6500  136.3660   91.1030 C   0  0  0  0  0  0  0  0  0  0  0  0
  147.7060  136.0620   92.2280 C   0  0  0  0  0  0  0  0  0  0  0  0
  146.4740  136.7800   92.0560 C   0  0  0  0  0  0  0  0  0  0  0  0
  146.7730  138.2090   92.0310 C   0  0  0  0  0  0  0  0  0  0  0  0
  147.8170  138.4760   90.8800 C   0  0  0  0  0  0  0  0  0  0  0  0
  1  2  2  0
  2  3  1  0
  3 15  1  0
 15 16  1  0
 16 17  1  0
 17 18  1  0
 18 19  1  0
 19 20  1  0
 20 21  1  0
 21 22  1  0
  2  5  1  0
  5  6  2  0
  6  7  1  0
  7  8  2  0
  8  9  1  0
  9 10  2  0
 10 11  1  0
 11 12  1  0
 11 13  2  0
 13 14  1  0
 20 15  1  0
 14  5  1  0
 22 17  1  0
 13  7  1  0
  3  4  1  0
M  END
> <meeko>
{"is_sidechain": false}

> <source_group>
CHRFAM7A at A face

> <source_system>
CHRNA7_encenicline

> <source_run>
hybrid_A_face_seed3301_ex32

> <source_seed>
3301

> <vina_pose_rank>
11

> <vina_affinity_kcal_mol>
-6.1959999999999997

> <vina_rmsd_to_crystal_angstrom>
7.7202000000000002

> <minimizedAffinity>
-6.21610

> <CNNscore>
0.2600269914

> <CNNaffinity>
5.2295546532

> <CNN_VS>
1.3598253727

> <CNNaffinity_variance>
0.2075082064

$$$$
CHRNA7_encenicline__hybrid_A_face_seed3301_ex32__pose12


 22 25  0  0  0  0  0  0  0  0999 V2000
  141.3300  136.2100   90.7690 O   0  0  0  0  0  0  0  0  0  0  0  0
  141.7940  137.2960   90.6820 C   0  0  0  0  0  0  0  0  0  0  0  0
  140.9360  138.4230   90.3710 N   0  0  0  0  0  0  0  0  0  0  0  0
  141.3130  139.3290   90.3000 H   0  0  0  0  0  0  0  0  0  0  0  0
  143.2970  137.4990   90.9040 C   0  0  0  0  0  0  0  0  0  0  0  0
  144.2610  136.5770   90.6780 C   0  0  0  0  0  0  0  0  0  0  0  0
  145.6330  136.9150   90.9310 C   0  0  0  0  0  0  0  0  0  0  0  0
  146.7210  136.1010   90.7540 C   0  0  0  0  0  0  0  0  0  0  0  0
  148.0010  136.5730   91.0470 C   0  0  0  0  0  0  0  0  0  0  0  0
  148.1750  137.8830   91.5240 C   0  0  0  0  0  0  0  0  0  0  0  0
  147.0690  138.7190   91.7060 C   0  0  0  0  0  0  0  0  0  0  0  0
  147.2960  140.3810   92.3100 Cl  0  0  0  0  0  0  0  0  0  0  0  0
  145.8070  138.2560   91.4190 C   0  0  0  0  0  0  0  0  0  0  0  0
  144.1160  138.9210   91.4830 S   0  0  0  0  0  0  0  0  0  0  0  0
  139.4870  138.1990   90.1620 C   0  0  0  0  0  0  0  0  0  0  0  0
  138.6870  139.4040   90.6960 C   0  0  0  0  0  0  0  0  0  0  0  0
  137.9120  139.9840   89.6880 N   0  0  0  0  0  0  0  0  0  0  0  0
  137.0460  139.0550   89.1540 C   0  0  0  0  0  0  0  0  0  0  0  0
  137.7870  137.8900   88.5670 C   0  0  0  0  0  0  0  0  0  0  0  0
  139.2030  138.0590   88.7370 C   0  0  0  0  0  0  0  0  0  0  0  0
  139.6040  139.2930   88.0650 C   0  0  0  0  0  0  0  0  0  0  0  0
  138.7570  140.4790   88.6640 C   0  0  0  0  0  0  0  0  0  0  0  0
  1  2  2  0
  2  3  1  0
  3 15  1  0
 15 16  1  0
 16 17  1  0
 17 18  1  0
 18 19  1  0
 19 20  1  0
 20 21  1  0
 21 22  1  0
  2  5  1  0
  5  6  2  0
  6  7  1  0
  7  8  2  0
  8  9  1  0
  9 10  2  0
 10 11  1  0
 11 12  1  0
 11 13  2  0
 13 14  1  0
 20 15  1  0
 14  5  1  0
 22 17  1  0
 13  7  1  0
  3  4  1  0
M  END
> <meeko>
{"is_sidechain": false}

> <source_group>
CHRFAM7A at A face

> <source_system>
CHRNA7_encenicline

> <source_run>
hybrid_A_face_seed3301_ex32

> <source_seed>
3301

> <vina_pose_rank>
12

> <vina_affinity_kcal_mol>
-6.1929999999999996

> <vina_rmsd_to_crystal_angstrom>
2.9152999999999998

> <minimizedAffinity>
-6.21584

> <CNNscore>
0.5041366220

> <CNNaffinity>
6.1559448242

> <CNN_VS>
3.1034371853

> <CNNaffinity_variance>
0.5786843300

$$$$
CHRNA7_encenicline__hybrid_A_face_seed3301_ex32__pose13


 22 25  0  0  0  0  0  0  0  0999 V2000
  139.9510  139.0960   90.3140 O   0  0  0  0  0  0  0  0  0  0  0  0
  140.4800  140.1420   90.4870 C   0  0  0  0  0  0  0  0  0  0  0  0
  141.9110  140.1970   90.7140 N   0  0  0  0  0  0  0  0  0  0  0  0
  142.3580  141.0620   90.8560 H   0  0  0  0  0  0  0  0  0  0  0  0
  139.6440  141.4270   90.4630 C   0  0  0  0  0  0  0  0  0  0  0  0
  139.5430  142.3230   91.4720 C   0  0  0  0  0  0  0  0  0  0  0  0
  138.7190  143.4860   91.3020 C   0  0  0  0  0  0  0  0  0  0  0  0
  138.5140  144.4820   92.2200 C   0  0  0  0  0  0  0  0  0  0  0  0
  137.6790  145.5560   91.9090 C   0  0  0  0  0  0  0  0  0  0  0  0
  137.0490  145.6160   90.6550 C   0  0  0  0  0  0  0  0  0  0  0  0
  137.2550  144.6030   89.7130 C   0  0  0  0  0  0  0  0  0  0  0  0
  136.4550  144.6860   88.1220 Cl  0  0  0  0  0  0  0  0  0  0  0  0
  138.0770  143.5440   90.0170 C   0  0  0  0  0  0  0  0  0  0  0  0
  138.6470  142.0370   89.1740 S   0  0  0  0  0  0  0  0  0  0  0  0
  142.6940  138.9400   90.7310 C   0  0  0  0  0  0  0  0  0  0  0  0
  143.8230  139.0110   89.6840 C   0  0  0  0  0  0  0  0  0  0  0  0
  145.0760  138.8430   90.2780 N   0  0  0  0  0  0  0  0  0  0  0  0
  145.1350  137.6360   90.9400 C   0  0  0  0  0  0  0  0  0  0  0  0
  144.0900  137.5480   92.0130 C   0  0  0  0  0  0  0  0  0  0  0  0
  143.3020  138.7480   92.0450 C   0  0  0  0  0  0  0  0  0  0  0  0
  144.1920  139.8760   92.3090 C   0  0  0  0  0  0  0  0  0  0  0  0
  145.3110  139.8930   91.1990 C   0  0  0  0  0  0  0  0  0  0  0  0
  1  2  2  0
  2  3  1  0
  3 15  1  0
 15 16  1  0
 16 17  1  0
 17 18  1  0
 18 19  1  0
 19 20  1  0
 20 21  1  0
 21 22  1  0
  2  5  1  0
  5  6  2  0
  6  7  1  0
  7  8  2  0
  8  9  1  0
  9 10  2  0
 10 11  1  0
 11 12  1  0
 11 13  2  0
 13 14  1  0
 20 15  1  0
 14  5  1  0
 22 17  1  0
 13  7  1  0
  3  4  1  0
M  END
> <meeko>
{"is_sidechain": false}

> <source_group>
CHRFAM7A at A face

> <source_system>
CHRNA7_encenicline

> <source_run>
hybrid_A_face_seed3301_ex32

> <source_seed>
3301

> <vina_pose_rank>
13

> <vina_affinity_kcal_mol>
-6.0199999999999996

> <vina_rmsd_to_crystal_angstrom>
8.6668000000000003

> <minimizedAffinity>
-6.01284

> <CNNscore>
0.0830227509

> <CNNaffinity>
3.9657058716

> <CNN_VS>
0.3292438090

> <CNNaffinity_variance>
1.7816033363

$$$$
CHRNA7_encenicline__hybrid_A_face_seed3301_ex32__pose14


 22 25  0  0  0  0  0  0  0  0999 V2000
  143.8150  139.4250   95.6280 O   0  0  0  0  0  0  0  0  0  0  0  0
  143.6360  140.1050   94.6750 C   0  0  0  0  0  0  0  0  0  0  0  0
  142.9850  141.3930   94.8210 N   0  0  0  0  0  0  0  0  0  0  0  0
  142.8350  141.9650   94.0340 H   0  0  0  0  0  0  0  0  0  0  0  0
  144.0990  139.6170   93.2980 C   0  0  0  0  0  0  0  0  0  0  0  0
  144.4320  138.3450   92.9810 C   0  0  0  0  0  0  0  0  0  0  0  0
  144.8470  138.0370   91.6420 C   0  0  0  0  0  0  0  0  0  0  0  0
  145.2130  136.8070   91.1620 C   0  0  0  0  0  0  0  0  0  0  0  0
  145.5960  136.6640   89.8280 C   0  0  0  0  0  0  0  0  0  0  0  0
  145.6070  137.7820   88.9760 C   0  0  0  0  0  0  0  0  0  0  0  0
  145.2330  139.0390   89.4590 C   0  0  0  0  0  0  0  0  0  0  0  0
  145.2470  140.4530   88.3730 Cl  0  0  0  0  0  0  0  0  0  0  0  0
  144.8560  139.1830   90.7730 C   0  0  0  0  0  0  0  0  0  0  0  0
  144.3060  140.5470   91.8410 S   0  0  0  0  0  0  0  0  0  0  0  0
  142.5490  141.8400   96.1630 C   0  0  0  0  0  0  0  0  0  0  0  0
  142.8350  143.3450   96.3340 C   0  0  0  0  0  0  0  0  0  0  0  0
  141.6650  144.0550   96.6130 N   0  0  0  0  0  0  0  0  0  0  0  0
  141.0670  143.5660   97.7540 C   0  0  0  0  0  0  0  0  0  0  0  0
  140.7150  142.1150   97.6100 C   0  0  0  0  0  0  0  0  0  0  0  0
  141.1120  141.6290   96.3180 C   0  0  0  0  0  0  0  0  0  0  0  0
  140.4200  142.4130   95.2980 C   0  0  0  0  0  0  0  0  0  0  0  0
  140.7640  143.9340   95.5260 C   0  0  0  0  0  0  0  0  0  0  0  0
  1  2  2  0
  2  3  1  0
  3 15  1  0
 15 16  1  0
 16 17  1  0
 17 18  1  0
 18 19  1  0
 19 20  1  0
 20 21  1  0
 21 22  1  0
  2  5  1  0
  5  6  2  0
  6  7  1  0
  7  8  2  0
  8  9  1  0
  9 10  2  0
 10 11  1  0
 11 12  1  0
 11 13  2  0
 13 14  1  0
 20 15  1  0
 14  5  1  0
 22 17  1  0
 13  7  1  0
  3  4  1  0
M  END
> <meeko>
{"is_sidechain": false}

> <source_group>
CHRFAM7A at A face

> <source_system>
CHRNA7_encenicline

> <source_run>
hybrid_A_face_seed3301_ex32

> <source_seed>
3301

> <vina_pose_rank>
14

> <vina_affinity_kcal_mol>
-6.0119999999999996

> <vina_rmsd_to_crystal_angstrom>
5.9958999999999998

> <minimizedAffinity>
-6.01593

> <CNNscore>
0.0847996995

> <CNNaffinity>
4.0504493713

> <CNN_VS>
0.3434768915

> <CNNaffinity_variance>
0.6387694478

$$$$
CHRNA7_encenicline__hybrid_A_face_seed3301_ex32__pose15


 22 25  0  0  0  0  0  0  0  0999 V2000
  140.0460  140.8540   85.9350 O   0  0  0  0  0  0  0  0  0  0  0  0
  140.9890  140.4320   86.5140 C   0  0  0  0  0  0  0  0  0  0  0  0
  140.8200  139.8340   87.8250 N   0  0  0  0  0  0  0  0  0  0  0  0
  141.5980  139.4780   88.3120 H   0  0  0  0  0  0  0  0  0  0  0  0
  142.3770  140.5190   85.8700 C   0  0  0  0  0  0  0  0  0  0  0  0
  142.6750  141.1600   84.7160 C   0  0  0  0  0  0  0  0  0  0  0  0
  144.0270  141.1580   84.2370 C   0  0  0  0  0  0  0  0  0  0  0  0
  144.4910  141.7570   83.0950 C   0  0  0  0  0  0  0  0  0  0  0  0
  145.8410  141.6660   82.7570 C   0  0  0  0  0  0  0  0  0  0  0  0
  146.7270  140.9590   83.5880 C   0  0  0  0  0  0  0  0  0  0  0  0
  146.2610  140.3450   84.7550 C   0  0  0  0  0  0  0  0  0  0  0  0
  147.3900  139.4510   85.8060 Cl  0  0  0  0  0  0  0  0  0  0  0  0
  144.9310  140.4340   85.0900 C   0  0  0  0  0  0  0  0  0  0  0  0
  143.8730  139.8370   86.4420 S   0  0  0  0  0  0  0  0  0  0  0  0
  139.4680  139.7620   88.4240 C   0  0  0  0  0  0  0  0  0  0  0  0
  138.7880  138.4360   88.0290 C   0  0  0  0  0  0  0  0  0  0  0  0
  138.4390  137.6900   89.1580 N   0  0  0  0  0  0  0  0  0  0  0  0
  137.5960  138.4170   89.9700 C   0  0  0  0  0  0  0  0  0  0  0  0
  138.2410  139.6910   90.4290 C   0  0  0  0  0  0  0  0  0  0  0  0
  139.5630  139.8090   89.8800 C   0  0  0  0  0  0  0  0  0  0  0  0
  140.3520  138.6640   90.3270 C   0  0  0  0  0  0  0  0  0  0  0  0
  139.6070  137.3480   89.8830 C   0  0  0  0  0  0  0  0  0  0  0  0
  1  2  2  0
  2  3  1  0
  3 15  1  0
 15 16  1  0
 16 17  1  0
 17 18  1  0
 18 19  1  0
 19 20  1  0
 20 21  1  0
 21 22  1  0
  2  5  1  0
  5  6  2  0
  6  7  1  0
  7  8  2  0
  8  9  1  0
  9 10  2  0
 10 11  1  0
 11 12  1  0
 11 13  2  0
 13 14  1  0
 20 15  1  0
 14  5  1  0
 22 17  1  0
 13  7  1  0
  3  4  1  0
M  END
> <meeko>
{"is_sidechain": false}

> <source_group>
CHRFAM7A at A face

> <source_system>
CHRNA7_encenicline

> <source_run>
hybrid_A_face_seed3301_ex32

> <source_seed>
3301

> <vina_pose_rank>
15

> <vina_affinity_kcal_mol>
-5.9580000000000002

> <vina_rmsd_to_crystal_angstrom>
6.3232999999999997

> <minimizedAffinity>
-6.00017

> <CNNscore>
0.7962972522

> <CNNaffinity>
6.5321984291

> <CNN_VS>
5.2015714645

> <CNNaffinity_variance>
0.2810203731

$$$$
CHRNA7_encenicline__hybrid_A_face_seed3301_ex32__pose16


 22 25  0  0  0  0  0  0  0  0999 V2000
  148.1670  140.2930   91.2930 O   0  0  0  0  0  0  0  0  0  0  0  0
  147.9040  139.5200   90.4350 C   0  0  0  0  0  0  0  0  0  0  0  0
  148.4840  139.6830   89.1160 N   0  0  0  0  0  0  0  0  0  0  0  0
  148.2720  139.0430   88.3990 H   0  0  0  0  0  0  0  0  0  0  0  0
  146.9570  138.3520   90.7320 C   0  0  0  0  0  0  0  0  0  0  0  0
  147.3220  137.1340   91.1950 C   0  0  0  0  0  0  0  0  0  0  0  0
  146.3170  136.1370   91.4280 C   0  0  0  0  0  0  0  0  0  0  0  0
  146.5200  134.8650   91.8940 C   0  0  0  0  0  0  0  0  0  0  0  0
  145.4370  134.0040   92.0690 C   0  0  0  0  0  0  0  0  0  0  0  0
  144.1360  134.4410   91.7670 C   0  0  0  0  0  0  0  0  0  0  0  0
  143.9210  135.7390   91.2920 C   0  0  0  0  0  0  0  0  0  0  0  0
  142.2680  136.2890   90.9130 Cl  0  0  0  0  0  0  0  0  0  0  0  0
  144.9870  136.5890   91.1190 C   0  0  0  0  0  0  0  0  0  0  0  0
  145.2260  138.3000   90.5520 S   0  0  0  0  0  0  0  0  0  0  0  0
  149.3960  140.8200   88.8570 C   0  0  0  0  0  0  0  0  0  0  0  0
  150.6300  140.3350   88.0710 C   0  0  0  0  0  0  0  0  0  0  0  0
  150.7560  141.0150   86.8560 N   0  0  0  0  0  0  0  0  0  0  0  0
  150.8520  142.3720   87.0750 C   0  0  0  0  0  0  0  0  0  0  0  0
  149.6410  142.8990   87.7860 C   0  0  0  0  0  0  0  0  0  0  0  0
  148.7160  141.8350   88.0570 C   0  0  0  0  0  0  0  0  0  0  0  0
  148.3230  141.2310   86.7870 C   0  0  0  0  0  0  0  0  0  0  0  0
  149.6270  140.7510   86.0430 C   0  0  0  0  0  0  0  0  0  0  0  0
  1  2  2  0
  2  3  1  0
  3 15  1  0
 15 16  1  0
 16 17  1  0
 17 18  1  0
 18 19  1  0
 19 20  1  0
 20 21  1  0
 21 22  1  0
  2  5  1  0
  5  6  2  0
  6  7  1  0
  7  8  2  0
  8  9  1  0
  9 10  2  0
 10 11  1  0
 11 12  1  0
 11 13  2  0
 13 14  1  0
 20 15  1  0
 14  5  1  0
 22 17  1  0
 13  7  1  0
  3  4  1  0
M  END
> <meeko>
{"is_sidechain": false}

> <source_group>
CHRFAM7A at A face

> <source_system>
CHRNA7_encenicline

> <source_run>
hybrid_A_face_seed3301_ex32

> <source_seed>
3301

> <vina_pose_rank>
16

> <vina_affinity_kcal_mol>
-5.9569999999999999

> <vina_rmsd_to_crystal_angstrom>
7.1894

> <minimizedAffinity>
-5.95909

> <CNNscore>
0.3255996406

> <CNNaffinity>
5.0046100616

> <CNN_VS>
1.6294991970

> <CNNaffinity_variance>
0.3133012056

$$$$
CHRNA7_encenicline__hybrid_A_face_seed3301_ex32__pose17


 22 25  0  0  0  0  0  0  0  0999 V2000
  138.3830  139.8740   88.0770 O   0  0  0  0  0  0  0  0  0  0  0  0
  138.7960  140.9690   87.8950 C   0  0  0  0  0  0  0  0  0  0  0  0
  139.4670  141.2880   86.6500 N   0  0  0  0  0  0  0  0  0  0  0  0
  139.8100  142.1960   86.4900 H   0  0  0  0  0  0  0  0  0  0  0  0
  138.6130  142.0370   88.9780 C   0  0  0  0  0  0  0  0  0  0  0  0
  137.9510  143.2080   88.8310 C   0  0  0  0  0  0  0  0  0  0  0  0
  137.8610  144.1120   89.9420 C   0  0  0  0  0  0  0  0  0  0  0  0
  137.2290  145.3280   89.9570 C   0  0  0  0  0  0  0  0  0  0  0  0
  137.2270  146.1000   91.1190 C   0  0  0  0  0  0  0  0  0  0  0  0
  137.8750  145.6310   92.2750 C   0  0  0  0  0  0  0  0  0  0  0  0
  138.5210  144.3910   92.2670 C   0  0  0  0  0  0  0  0  0  0  0  0
  139.3380  143.8000   93.7370 Cl  0  0  0  0  0  0  0  0  0  0  0  0
  138.5240  143.6280   91.1230 C   0  0  0  0  0  0  0  0  0  0  0  0
  139.1930  142.0150   90.6190 S   0  0  0  0  0  0  0  0  0  0  0  0
  139.6300  140.2370   85.6200 C   0  0  0  0  0  0  0  0  0  0  0  0
  139.9860  140.8800   84.2650 C   0  0  0  0  0  0  0  0  0  0  0  0
  141.2050  140.3990   83.7810 N   0  0  0  0  0  0  0  0  0  0  0  0
  141.1600  139.0280   83.6440 C   0  0  0  0  0  0  0  0  0  0  0  0
  140.8750  138.3560   84.9550 C   0  0  0  0  0  0  0  0  0  0  0  0
  140.7130  139.3330   85.9950 C   0  0  0  0  0  0  0  0  0  0  0  0
  141.9470  140.1100   86.0920 C   0  0  0  0  0  0  0  0  0  0  0  0
  142.2440  140.7440   84.6800 C   0  0  0  0  0  0  0  0  0  0  0  0
  1  2  2  0
  2  3  1  0
  3 15  1  0
 15 16  1  0
 16 17  1  0
 17 18  1  0
 18 19  1  0
 19 20  1  0
 20 21  1  0
 21 22  1  0
  2  5  1  0
  5  6  2  0
  6  7  1  0
  7  8  2  0
  8  9  1  0
  9 10  2  0
 10 11  1  0
 11 12  1  0
 11 13  2  0
 13 14  1  0
 20 15  1  0
 14  5  1  0
 22 17  1  0
 13  7  1  0
  3  4  1  0
M  END
> <meeko>
{"is_sidechain": false}

> <source_group>
CHRFAM7A at A face

> <source_system>
CHRNA7_encenicline

> <source_run>
hybrid_A_face_seed3301_ex32

> <source_seed>
3301

> <vina_pose_rank>
17

> <vina_affinity_kcal_mol>
-5.9569999999999999

> <vina_rmsd_to_crystal_angstrom>
8.5222999999999995

> <minimizedAffinity>
-6.08432

> <CNNscore>
0.1397595108

> <CNNaffinity>
5.3325123787

> <CNN_VS>
0.7452692986

> <CNNaffinity_variance>
0.1783503145

$$$$
CHRNA7_encenicline__hybrid_A_face_seed3301_ex32__pose18


 22 25  0  0  0  0  0  0  0  0999 V2000
  144.9440  137.4870   91.5300 O   0  0  0  0  0  0  0  0  0  0  0  0
  144.4300  138.4350   91.0400 C   0  0  0  0  0  0  0  0  0  0  0  0
  145.2270  139.6050   90.7290 N   0  0  0  0  0  0  0  0  0  0  0  0
  144.8080  140.3960   90.3190 H   0  0  0  0  0  0  0  0  0  0  0  0
  142.9280  138.4110   90.7370 C   0  0  0  0  0  0  0  0  0  0  0  0
  142.1420  137.3090   90.7180 C   0  0  0  0  0  0  0  0  0  0  0  0
  140.7450  137.4440   90.4180 C   0  0  0  0  0  0  0  0  0  0  0  0
  139.8210  136.4350   90.3610 C   0  0  0  0  0  0  0  0  0  0  0  0
  138.4900  136.7240   90.0530 C   0  0  0  0  0  0  0  0  0  0  0  0
  138.0990  138.0500   89.8020 C   0  0  0  0  0  0  0  0  0  0  0  0
  139.0380  139.0840   89.8600 C   0  0  0  0  0  0  0  0  0  0  0  0
  138.5340  140.7650   89.5430 Cl  0  0  0  0  0  0  0  0  0  0  0  0
  140.3480  138.8030   90.1630 C   0  0  0  0  0  0  0  0  0  0  0  0
  141.8870  139.7520   90.3540 S   0  0  0  0  0  0  0  0  0  0  0  0
  146.6760  139.6020   91.0320 C   0  0  0  0  0  0  0  0  0  0  0  0
  147.4820  139.3590   89.7400 C   0  0  0  0  0  0  0  0  0  0  0  0
  148.3670  140.4110   89.4900 N   0  0  0  0  0  0  0  0  0  0  0  0
  149.2320  140.5720   90.5510 C   0  0  0  0  0  0  0  0  0  0  0  0
  148.4920  140.8720   91.8200 C   0  0  0  0  0  0  0  0  0  0  0  0
  147.0750  140.8940   91.5810 C   0  0  0  0  0  0  0  0  0  0  0  0
  146.7920  141.9250   90.5860 C   0  0  0  0  0  0  0  0  0  0  0  0
  147.6380  141.6100   89.2940 C   0  0  0  0  0  0  0  0  0  0  0  0
  1  2  2  0
  2  3  1  0
  3 15  1  0
 15 16  1  0
 16 17  1  0
 17 18  1  0
 18 19  1  0
 19 20  1  0
 20 21  1  0
 21 22  1  0
  2  5  1  0
  5  6  2  0
  6  7  1  0
  7  8  2  0
  8  9  1  0
  9 10  2  0
 10 11  1  0
 11 12  1  0
 11 13  2  0
 13 14  1  0
 20 15  1  0
 14  5  1  0
 22 17  1  0
 13  7  1  0
  3  4  1  0
M  END
> <meeko>
{"is_sidechain": false}

> <source_group>
CHRFAM7A at A face

> <source_system>
CHRNA7_encenicline

> <source_run>
hybrid_A_face_seed3301_ex32

> <source_seed>
3301

> <vina_pose_rank>
18

> <vina_affinity_kcal_mol>
-5.9130000000000003

> <vina_rmsd_to_crystal_angstrom>
7.1731999999999996

> <minimizedAffinity>
-5.92043

> <CNNscore>
0.2422313541

> <CNNaffinity>
5.0573997498

> <CNN_VS>
1.2250608206

> <CNNaffinity_variance>
0.1730138808

$$$$
CHRNA7_encenicline__hybrid_A_face_seed3301_ex32__pose19


 22 25  0  0  0  0  0  0  0  0999 V2000
  149.3600  135.5190   92.2620 O   0  0  0  0  0  0  0  0  0  0  0  0
  148.9180  136.5650   91.9250 C   0  0  0  0  0  0  0  0  0  0  0  0
  149.8100  137.6870   91.7070 N   0  0  0  0  0  0  0  0  0  0  0  0
  149.4510  138.5590   91.4250 H   0  0  0  0  0  0  0  0  0  0  0  0
  147.4070  136.7190   91.7210 C   0  0  0  0  0  0  0  0  0  0  0  0
  146.5260  135.7090   91.5380 C   0  0  0  0  0  0  0  0  0  0  0  0
  145.1340  136.0090   91.3610 C   0  0  0  0  0  0  0  0  0  0  0  0
  144.1210  135.1070   91.1680 C   0  0  0  0  0  0  0  0  0  0  0  0
  142.8090  135.5540   91.0090 C   0  0  0  0  0  0  0  0  0  0  0  0
  142.5260  136.9300   91.0480 C   0  0  0  0  0  0  0  0  0  0  0  0
  143.5540  137.8560   91.2460 C   0  0  0  0  0  0  0  0  0  0  0  0
  143.1880  139.6000   91.2960 Cl  0  0  0  0  0  0  0  0  0  0  0  0
  144.8480  137.4180   91.4020 C   0  0  0  0  0  0  0  0  0  0  0  0
  146.4730  138.1870   91.6750 S   0  0  0  0  0  0  0  0  0  0  0  0
  151.2660  137.5110   91.9110 C   0  0  0  0  0  0  0  0  0  0  0  0
  151.9510  137.1950   90.5670 C   0  0  0  0  0  0  0  0  0  0  0  0
  152.9340  138.1410   90.2650 N   0  0  0  0  0  0  0  0  0  0  0  0
  153.8800  138.1850   91.2660 C   0  0  0  0  0  0  0  0  0  0  0  0
  153.2660  138.5500   92.5850 C   0  0  0  0  0  0  0  0  0  0  0  0
  151.8490  138.7400   92.4420 C   0  0  0  0  0  0  0  0  0  0  0  0
  151.6230  139.8110   91.4750 C   0  0  0  0  0  0  0  0  0  0  0  0
  152.3390  139.4190   90.1270 C   0  0  0  0  0  0  0  0  0  0  0  0
  1  2  2  0
  2  3  1  0
  3 15  1  0
 15 16  1  0
 16 17  1  0
 17 18  1  0
 18 19  1  0
 19 20  1  0
 20 21  1  0
 21 22  1  0
  2  5  1  0
  5  6  2  0
  6  7  1  0
  7  8  2  0
  8  9  1  0
  9 10  2  0
 10 11  1  0
 11 12  1  0
 11 13  2  0
 13 14  1  0
 20 15  1  0
 14  5  1  0
 22 17  1  0
 13  7  1  0
  3  4  1  0
M  END
> <meeko>
{"is_sidechain": false}

> <source_group>
CHRFAM7A at A face

> <source_system>
CHRNA7_encenicline

> <source_run>
hybrid_A_face_seed3301_ex32

> <source_seed>
3301

> <vina_pose_rank>
19

> <vina_affinity_kcal_mol>
-5.7910000000000004

> <vina_rmsd_to_crystal_angstrom>
9.1547000000000001

> <minimizedAffinity>
-5.81511

> <CNNscore>
0.2639632523

> <CNNaffinity>
4.9602432251

> <CNN_VS>
1.3093218803

> <CNNaffinity_variance>
0.1692247540

$$$$
CHRNA7_encenicline__hybrid_A_face_seed3301_ex32__pose20


 22 25  0  0  0  0  0  0  0  0999 V2000
  144.5140  142.2850   95.1090 O   0  0  0  0  0  0  0  0  0  0  0  0
  143.6640  141.8010   94.4400 C   0  0  0  0  0  0  0  0  0  0  0  0
  142.2750  142.1340   94.6890 N   0  0  0  0  0  0  0  0  0  0  0  0
  141.5630  141.7390   94.1360 H   0  0  0  0  0  0  0  0  0  0  0  0
  144.0440  140.8320   93.3150 C   0  0  0  0  0  0  0  0  0  0  0  0
  144.2080  141.1560   92.0120 C   0  0  0  0  0  0  0  0  0  0  0  0
  144.5690  140.1350   91.0700 C   0  0  0  0  0  0  0  0  0  0  0  0
  144.7730  140.2990   89.7260 C   0  0  0  0  0  0  0  0  0  0  0  0
  145.1190  139.2050   88.9330 C   0  0  0  0  0  0  0  0  0  0  0  0
  145.2590  137.9330   89.5150 C   0  0  0  0  0  0  0  0  0  0  0  0
  145.0530  137.7590   90.8870 C   0  0  0  0  0  0  0  0  0  0  0  0
  145.2340  136.1430   91.6190 Cl  0  0  0  0  0  0  0  0  0  0  0  0
  144.7110  138.8360   91.6690 C   0  0  0  0  0  0  0  0  0  0  0  0
  144.3500  139.1220   93.4280 S   0  0  0  0  0  0  0  0  0  0  0  0
  141.9360  143.0740   95.7820 C   0  0  0  0  0  0  0  0  0  0  0  0
  140.6660  143.8680   95.4170 C   0  0  0  0  0  0  0  0  0  0  0  0
  139.6600  143.6780   96.3680 N   0  0  0  0  0  0  0  0  0  0  0  0
  140.1010  144.0620   97.6150 C   0  0  0  0  0  0  0  0  0  0  0  0
  141.3030  143.2710   98.0380 C   0  0  0  0  0  0  0  0  0  0  0  0
  141.6730  142.3350   97.0130 C   0  0  0  0  0  0  0  0  0  0  0  0
  140.5450  141.4380   96.7790 C   0  0  0  0  0  0  0  0  0  0  0  0
  139.2880  142.3120   96.4030 C   0  0  0  0  0  0  0  0  0  0  0  0
  1  2  2  0
  2  3  1  0
  3 15  1  0
 15 16  1  0
 16 17  1  0
 17 18  1  0
 18 19  1  0
 19 20  1  0
 20 21  1  0
 21 22  1  0
  2  5  1  0
  5  6  2  0
  6  7  1  0
  7  8  2  0
  8  9  1  0
  9 10  2  0
 10 11  1  0
 11 12  1  0
 11 13  2  0
 13 14  1  0
 20 15  1  0
 14  5  1  0
 22 17  1  0
 13  7  1  0
  3  4  1  0
M  END
> <meeko>
{"is_sidechain": false}

> <source_group>
CHRFAM7A at A face

> <source_system>
CHRNA7_encenicline

> <source_run>
hybrid_A_face_seed3301_ex32

> <source_seed>
3301

> <vina_pose_rank>
20

> <vina_affinity_kcal_mol>
-5.7690000000000001

> <vina_rmsd_to_crystal_angstrom>
6.1410999999999998

> <minimizedAffinity>
-5.79150

> <CNNscore>
0.1194373593

> <CNNaffinity>
3.9693553448

> <CNN_VS>
0.4740893245

> <CNNaffinity_variance>
0.7145155072

$$$$
