outputs/docking_campaign/systems/FYN_saracatinib/prepared/saracatinib_H8H_A601_crystal.pdb
 OpenBabel08242621053D

 72 77  0  0  1  0  0  0  0  0999 V2000
   -6.6420   15.5160   -1.3960 C   0  0  0  0  0  0  0  0  0  0  0  0
   -7.2250   16.5740   -2.2030 N   0  0  0  0  0  0  0  0  0  0  0  0
   -6.5480   16.6580   -3.4850 C   0  0  0  0  0  0  0  0  0  0  0  0
   -7.1780   17.7240   -4.3930 C   0  0  0  0  0  0  0  0  0  0  0  0
   -8.6040   17.4980   -4.6090 N   0  0  0  0  0  0  0  0  0  0  0  0
   -9.1400   18.5850   -5.4210 C   0  0  0  0  0  0  0  0  0  0  0  0
  -10.1700   18.1910   -6.4930 C   0  0  0  0  0  0  0  0  0  0  0  0
  -10.3190   16.7960   -6.6080 O   0  0  0  0  0  0  0  0  0  0  0  0
  -10.9590   16.3540   -7.7400 C   0  0  0  0  0  0  0  0  0  0  0  0
  -10.5210   15.2850   -8.4310 C   0  0  0  0  0  0  0  0  0  0  0  0
  -11.1060   14.7840   -9.5430 C   0  0  0  0  0  0  0  0  0  0  0  0
  -10.5530   13.6880  -10.1790 O   0  0  0  0  0  0  0  0  0  0  0  0
   -9.8310   12.6920   -9.4960 C   0  0  0  0  0  0  0  0  0  0  0  0
  -10.7200   11.6250   -8.8560 C   0  0  0  0  0  0  0  0  0  0  0  0
   -9.9060   10.4000   -8.4530 C   0  0  0  0  0  0  0  0  0  0  0  0
   -9.2120    9.8740   -9.5580 O   0  0  0  0  0  0  0  0  0  0  0  0
   -8.2460   10.7860  -10.0060 C   0  0  0  0  0  0  0  0  0  0  0  0
   -8.9300   12.0340  -10.5540 C   0  0  0  0  0  0  0  0  0  0  0  0
  -12.2220   15.4020  -10.0200 C   0  0  0  0  0  0  0  0  0  0  0  0
  -12.9370   15.0490  -11.1270 C   0  0  1  0  0  0  0  0  0  0  0  0
  -12.8280   14.1120  -11.9950 N   0  0  0  0  0  0  0  0  0  0  0  0
  -13.4130   13.7450  -13.0730 C   0  0  0  0  0  0  0  0  0  0  0  0
  -13.6040   14.5420  -14.1490 C   0  0  0  0  0  0  0  0  0  0  0  0
  -13.2610   15.7180  -14.2880 O   0  0  0  0  0  0  0  0  0  0  0  0
  -13.6100   16.1420  -15.6050 C   0  0  0  0  0  0  0  0  0  0  0  0
  -14.2980   15.0040  -16.1110 O   0  0  0  0  0  0  0  0  0  0  0  0
  -14.2320   14.1230  -15.2550 C   0  0  0  0  0  0  0  0  0  0  0  0
  -14.7030   12.8770  -15.3530 C   0  0  0  0  0  0  0  0  0  0  0  0
  -14.5260   12.0620  -14.3040 C   0  0  0  0  0  0  0  0  0  0  0  0
  -13.8930   12.4740  -13.1880 C   0  0  0  0  0  0  0  0  0  0  0  0
  -13.7700   11.2710  -11.9360 Cl  0  0  0  0  0  0  0  0  0  0  0  0
  -13.9640   15.7500  -11.4160 N   0  0  0  0  0  0  0  0  0  0  0  0
  -14.2980   16.7360  -10.7030 C   0  0  0  0  0  0  0  0  0  0  0  0
  -13.7010   17.1380   -9.6710 N   0  0  0  0  0  0  0  0  0  0  0  0
  -12.6710   16.4850   -9.3260 C   0  0  0  0  0  0  0  0  0  0  0  0
  -12.0600   16.9410   -8.2230 C   0  0  0  0  0  0  0  0  0  0  0  0
   -9.2550   17.4300   -3.3090 C   0  0  0  0  0  0  0  0  0  0  0  0
   -8.6410   16.3350   -2.4160 C   0  0  0  0  0  0  0  0  0  0  0  0
   -6.7740   14.5250   -1.8880 H   0  0  0  0  0  0  0  0  0  0  0  0
   -5.5510   15.6860   -1.2480 H   0  0  0  0  0  0  0  0  0  0  0  0
   -7.1250   15.4720   -0.3930 H   0  0  0  0  0  0  0  0  0  0  0  0
   -5.4700   16.9080   -3.3360 H   0  0  0  0  0  0  0  0  0  0  0  0
   -6.5890   15.6740   -4.0090 H   0  0  0  0  0  0  0  0  0  0  0  0
   -7.0100   18.7260   -3.9280 H   0  0  0  0  0  0  0  0  0  0  0  0
   -6.6340   17.7220   -5.3690 H   0  0  0  0  0  0  0  0  0  0  0  0
   -8.2930   19.1000   -5.9390 H   0  0  0  0  0  0  0  0  0  0  0  0
   -9.6230   19.3350   -4.7480 H   0  0  0  0  0  0  0  0  0  0  0  0
   -9.8650   18.5790   -7.4910 H   0  0  0  0  0  0  0  0  0  0  0  0
  -11.1690   18.6160   -6.2520 H   0  0  0  0  0  0  0  0  0  0  0  0
   -9.6130   14.7850   -8.0520 H   0  0  0  0  0  0  0  0  0  0  0  0
   -9.2120   13.1470   -8.6850 H   0  0  0  0  0  0  0  0  0  0  0  0
  -11.2220   12.0280   -7.9460 H   0  0  0  0  0  0  0  0  0  0  0  0
  -11.5150   11.3000   -9.5670 H   0  0  0  0  0  0  0  0  0  0  0  0
   -9.1690   10.6640   -7.6610 H   0  0  0  0  0  0  0  0  0  0  0  0
  -10.5720    9.6070   -8.0400 H   0  0  0  0  0  0  0  0  0  0  0  0
   -7.6260   10.2890  -10.7880 H   0  0  0  0  0  0  0  0  0  0  0  0
   -7.5730   11.0360   -9.1530 H   0  0  0  0  0  0  0  0  0  0  0  0
   -8.1570   12.7640  -10.8940 H   0  0  0  0  0  0  0  0  0  0  0  0
   -9.5400   11.7610  -11.4480 H   0  0  0  0  0  0  0  0  0  0  0  0
  -12.0380   13.4520  -11.7690 H   0  0  0  0  0  0  0  0  0  0  0  0
  -14.2820   17.0300  -15.5720 H   0  0  0  0  0  0  0  0  0  0  0  0
  -12.7000   16.3570  -16.2090 H   0  0  0  0  0  0  0  0  0  0  0  0
  -15.2190   12.5350  -16.2650 H   0  0  0  0  0  0  0  0  0  0  0  0
  -14.9150   11.0320  -14.3790 H   0  0  0  0  0  0  0  0  0  0  0  0
  -15.1960   17.2970  -11.0120 H   0  0  0  0  0  0  0  0  0  0  0  0
  -12.4620   17.8200   -7.6890 H   0  0  0  0  0  0  0  0  0  0  0  0
  -10.3440   17.2180   -3.4370 H   0  0  0  0  0  0  0  0  0  0  0  0
   -9.1670   18.4110   -2.7850 H   0  0  0  0  0  0  0  0  0  0  0  0
   -9.1820   16.3160   -1.4390 H   0  0  0  0  0  0  0  0  0  0  0  0
   -8.7980   15.3400   -2.8990 H   0  0  0  0  0  0  0  0  0  0  0  0
  -12.0252   14.6900  -10.6972 H   0  0  0  0  0  0  0  0  0  0  0  0
  -14.0168   17.9175   -9.1592 H   0  0  0  0  0  0  0  0  0  0  0  0
  1 40  1  0  0  0  0
  1 41  1  0  0  0  0
  2  1  1  0  0  0  0
  3 42  1  0  0  0  0
  3  2  1  0  0  0  0
  4 44  1  0  0  0  0
  4  3  1  0  0  0  0
  5  4  1  0  0  0  0
  5 37  1  0  0  0  0
  6 47  1  0  0  0  0
  6  5  1  0  0  0  0
  7 49  1  0  0  0  0
  7  6  1  0  0  0  0
  8  7  1  0  0  0  0
  9  8  1  0  0  0  0
 10 50  1  0  0  0  0
 10  9  2  0  0  0  0
 11 10  1  0  0  0  0
 12 11  1  0  0  0  0
 12 13  1  0  0  0  0
 13 14  1  0  0  0  0
 13 51  1  0  0  0  0
 14 15  1  0  0  0  0
 14 52  1  0  0  0  0
 15 55  1  0  0  0  0
 15 54  1  0  0  0  0
 16 15  1  0  0  0  0
 17 16  1  0  0  0  0
 17 57  1  0  0  0  0
 18 17  1  0  0  0  0
 18 13  1  0  0  0  0
 19 11  2  0  0  0  0
 19 35  1  0  0  0  0
 20 19  1  0  0  0  0
 20 71  1  6  0  0  0
 21 60  1  0  0  0  0
 21 20  1  0  0  0  0
 22 21  1  0  0  0  0
 23 22  2  0  0  0  0
 24 23  1  0  0  0  0
 25 61  1  0  0  0  0
 25 24  1  0  0  0  0
 26 25  1  0  0  0  0
 26 27  1  0  0  0  0
 27 23  1  0  0  0  0
 28 27  2  0  0  0  0
 28 29  1  0  0  0  0
 29 30  2  0  0  0  0
 30 22  1  0  0  0  0
 30 31  1  0  0  0  0
 32 20  1  0  0  0  0
 32 33  2  0  0  0  0
 33 34  1  0  0  0  0
 34 35  1  0  0  0  0
 34 72  1  0  0  0  0
 35 36  2  0  0  0  0
 36  9  1  0  0  0  0
 36 66  1  0  0  0  0
 37 68  1  0  0  0  0
 37 38  1  0  0  0  0
 38  2  1  0  0  0  0
 38 69  1  0  0  0  0
 39  1  1  0  0  0  0
 43  3  1  0  0  0  0
 45  4  1  0  0  0  0
 46  6  1  0  0  0  0
 48  7  1  0  0  0  0
 53 14  1  0  0  0  0
 56 17  1  0  0  0  0
 58 18  1  0  0  0  0
 59 18  1  0  0  0  0
 62 25  1  0  0  0  0
 63 28  1  0  0  0  0
 64 29  1  0  0  0  0
 65 33  1  0  0  0  0
 67 37  1  0  0  0  0
 70 38  1  0  0  0  0
M  END
$$$$
