/home/welcome3/Viscacha_pipeline/outputs/docking_campaign/CACNA1D_isradipine/prepared/amiodarone_BBI_A2201_crystal.pdb
 OpenBabel08252613453D

  5  4  0  0  0  0  0  0  0  0999 V2000
  155.2150  173.6430  145.5930 C   0  0  0  0  0  0  0  0  0  0  0  0
  156.2850  173.6430  145.5930 H   0  0  0  0  0  0  0  0  0  0  0  0
  154.8583  174.5191  146.0931 H   0  0  0  0  0  0  0  0  0  0  0  0
  154.8583  172.7718  146.1017 H   0  0  0  0  0  0  0  0  0  0  0  0
  154.8583  173.6380  144.5842 H   0  0  0  0  0  0  0  0  0  0  0  0
  1  2  1  0  0  0  0
  1  3  1  0  0  0  0
  1  4  1  0  0  0  0
  1  5  1  0  0  0  0
M  END
$$$$
