FYN_saracatinib__vina_seed3301_ex32__pose01


 40 45  0  0  0  0  0  0  0  0999 V2000
  -10.1460   15.8570   -7.5910 C   0  0  0  0  0  0  0  0  0  0  0  0
  -11.2410   16.5810   -7.8500 C   0  0  0  0  0  0  0  0  0  0  0  0
  -12.0000   16.3430   -8.9290 C   0  0  0  0  0  0  0  0  0  0  0  0
  -11.7150   15.3560   -9.8240 C   0  0  0  0  0  0  0  0  0  0  0  0
  -10.6090   14.6010   -9.5780 C   0  0  0  0  0  0  0  0  0  0  0  0
   -9.8710   14.8840   -8.4800 C   0  0  0  0  0  0  0  0  0  0  0  0
  -12.5690   15.2270  -10.8800 C   0  0  0  0  0  0  0  0  0  0  0  0
  -13.5610   16.0280  -10.9400 N   0  0  0  0  0  0  0  0  0  0  0  0
  -13.7370   16.9090  -10.0540 C   0  0  0  0  0  0  0  0  0  0  0  0
  -13.0040   17.1060   -9.0510 N   0  0  0  0  0  0  0  0  0  0  0  0
  -13.2010   17.8150   -8.3950 H   0  0  0  0  0  0  0  0  0  0  0  0
  -12.6280   14.4320  -11.8840 N   0  0  0  0  0  0  0  0  0  0  0  0
  -11.7150   13.9320  -12.0490 H   0  0  0  0  0  0  0  0  0  0  0  0
  -13.4920   14.0680  -12.7560 C   0  0  0  0  0  0  0  0  0  0  0  0
  -14.2360   12.9440  -12.5500 C   0  0  0  0  0  0  0  0  0  0  0  0
  -14.0970   11.9320  -11.1400 Cl  0  0  0  0  0  0  0  0  0  0  0  0
  -15.1630   12.5430  -13.4420 C   0  0  0  0  0  0  0  0  0  0  0  0
  -15.3890   13.2230  -14.5740 C   0  0  0  0  0  0  0  0  0  0  0  0
  -14.6630   14.3230  -14.7910 C   0  0  0  0  0  0  0  0  0  0  0  0
  -13.7410   14.7300  -13.9090 C   0  0  0  0  0  0  0  0  0  0  0  0
  -13.2020   15.7610  -14.3190 O   0  0  0  0  0  0  0  0  0  0  0  0
  -13.7300   16.0680  -15.6090 C   0  0  0  0  0  0  0  0  0  0  0  0
  -14.7280   15.0670  -15.7680 O   0  0  0  0  0  0  0  0  0  0  0  0
   -9.3560   16.0750   -6.4890 O   0  0  0  0  0  0  0  0  0  0  0  0
   -7.9870   15.7880   -6.6490 C   0  0  0  0  0  0  0  0  0  0  0  0
   -7.4780   14.7640   -5.6210 C   0  0  0  0  0  0  0  0  0  0  0  0
   -9.0260   13.7130   -0.2950 C   0  0  0  0  0  0  0  0  0  0  0  0
   -8.3610   13.7600   -1.5860 N   0  0  0  0  0  0  0  0  0  0  0  0
   -9.2690   13.3300   -2.6350 C   0  0  0  0  0  0  0  0  0  0  0  0
   -8.6210   13.4260   -4.0230 C   0  0  0  0  0  0  0  0  0  0  0  0
   -8.1370   14.7710   -4.3190 N   0  0  0  0  0  0  0  0  0  0  0  0
   -7.2230   15.1680   -3.2590 C   0  0  0  0  0  0  0  0  0  0  0  0
   -7.8900   15.1030   -1.8720 C   0  0  0  0  0  0  0  0  0  0  0  0
  -10.2160   13.5850  -10.4290 O   0  0  0  0  0  0  0  0  0  0  0  0
  -10.1250   12.2410  -10.0250 C   0  0  0  0  0  0  0  0  0  0  0  0
  -11.1960   11.8360   -9.0100 C   0  0  0  0  0  0  0  0  0  0  0  0
  -11.2860   10.3190   -8.8820 C   0  0  0  0  0  0  0  0  0  0  0  0
  -11.5340    9.7250  -10.1330 O   0  0  0  0  0  0  0  0  0  0  0  0
  -10.4440    9.9240  -10.9920 C   0  0  0  0  0  0  0  0  0  0  0  0
  -10.3000   11.4090  -11.3060 C   0  0  0  0  0  0  0  0  0  0  0  0
 27 28  1  0
 28 29  1  0
 29 30  1  0
 30 31  1  0
 31 26  1  0
 26 25  1  0
 25 24  1  0
 24  1  1  0
  1  2  2  0
  2  3  1  0
  3  4  2  0
  4  5  1  0
  5 34  1  0
 34 35  1  0
 35 36  1  0
 36 37  1  0
 37 38  1  0
 38 39  1  0
 39 40  1  0
  5  6  2  0
  4  7  1  0
  7 12  1  0
 12 14  1  0
 14 15  2  0
 15 16  1  0
 15 17  1  0
 17 18  2  0
 18 19  1  0
 19 20  2  0
 20 21  1  0
 21 22  1  0
 22 23  1  0
  7  8  1  0
  8  9  2  0
  9 10  1  0
 31 32  1  0
 32 33  1  0
 33 28  1  0
  6  1  1  0
 20 14  1  0
 10  3  1  0
 40 35  1  0
 23 19  1  0
 12 13  1  0
 10 11  1  0
M  END
> <meeko>
{"is_sidechain": false}

> <source_group>
FYN canonical

> <source_system>
FYN_saracatinib

> <source_run>
vina_seed3301_ex32

> <source_seed>
3301

> <vina_pose_rank>
1

> <vina_affinity_kcal_mol>
-9.1549999999999994

> <vina_rmsd_to_crystal_angstrom>
1.9087000000000001

> <minimizedAffinity>
-9.15423

> <CNNscore>
0.5767170191

> <CNNaffinity>
7.5661349297

> <CNN_VS>
4.3635187149

> <CNNaffinity_variance>
0.1532719880

$$$$
FYN_saracatinib__vina_seed3301_ex32__pose02


 40 45  0  0  0  0  0  0  0  0999 V2000
  -10.1490   16.0540   -7.3930 C   0  0  0  0  0  0  0  0  0  0  0  0
  -11.2660   16.7310   -7.6860 C   0  0  0  0  0  0  0  0  0  0  0  0
  -11.9750   16.4670   -8.7920 C   0  0  0  0  0  0  0  0  0  0  0  0
  -11.6170   15.4990   -9.6820 C   0  0  0  0  0  0  0  0  0  0  0  0
  -10.4860   14.7930   -9.4010 C   0  0  0  0  0  0  0  0  0  0  0  0
   -9.8000   15.1000   -8.2770 C   0  0  0  0  0  0  0  0  0  0  0  0
  -12.4270   15.3390  -10.7670 C   0  0  0  0  0  0  0  0  0  0  0  0
  -13.4510   16.0960  -10.8570 N   0  0  0  0  0  0  0  0  0  0  0  0
  -13.6970   16.9630   -9.9740 C   0  0  0  0  0  0  0  0  0  0  0  0
  -13.0080   17.1850   -8.9450 N   0  0  0  0  0  0  0  0  0  0  0  0
  -13.2590   17.8800   -8.2930 H   0  0  0  0  0  0  0  0  0  0  0  0
  -12.4160   14.5500  -11.7770 N   0  0  0  0  0  0  0  0  0  0  0  0
  -11.4500   14.4380  -12.1830 H   0  0  0  0  0  0  0  0  0  0  0  0
  -13.2560   13.8490  -12.4430 C   0  0  0  0  0  0  0  0  0  0  0  0
  -13.6790   14.2750  -13.6670 C   0  0  0  0  0  0  0  0  0  0  0  0
  -13.1430   15.7490  -14.4220 Cl  0  0  0  0  0  0  0  0  0  0  0  0
  -14.5510   13.5530  -14.3970 C   0  0  0  0  0  0  0  0  0  0  0  0
  -15.0500   12.3920  -13.9510 C   0  0  0  0  0  0  0  0  0  0  0  0
  -14.6480   11.9670  -12.7510 C   0  0  0  0  0  0  0  0  0  0  0  0
  -13.7790   12.6760  -12.0190 C   0  0  0  0  0  0  0  0  0  0  0  0
  -13.5580   12.0900  -10.9570 O   0  0  0  0  0  0  0  0  0  0  0  0
  -14.3740   10.9210  -10.9020 C   0  0  0  0  0  0  0  0  0  0  0  0
  -14.9980   10.9340  -12.1810 O   0  0  0  0  0  0  0  0  0  0  0  0
   -9.4080   16.3000   -6.2630 O   0  0  0  0  0  0  0  0  0  0  0  0
   -8.0330   16.0170   -6.3580 C   0  0  0  0  0  0  0  0  0  0  0  0
   -7.5930   14.9080   -5.3870 C   0  0  0  0  0  0  0  0  0  0  0  0
   -9.1790   13.7460   -0.0960 C   0  0  0  0  0  0  0  0  0  0  0  0
   -8.4870   13.8460   -1.3700 N   0  0  0  0  0  0  0  0  0  0  0  0
   -9.3260   13.3330   -2.4380 C   0  0  0  0  0  0  0  0  0  0  0  0
   -8.6540   13.4810   -3.8110 C   0  0  0  0  0  0  0  0  0  0  0  0
   -8.2830   14.8620   -4.1030 N   0  0  0  0  0  0  0  0  0  0  0  0
   -7.4350   15.3430   -3.0220 C   0  0  0  0  0  0  0  0  0  0  0  0
   -8.1290   15.2240   -1.6510 C   0  0  0  0  0  0  0  0  0  0  0  0
  -10.0200   13.8010  -10.2440 O   0  0  0  0  0  0  0  0  0  0  0  0
   -9.8870   12.4590   -9.8450 C   0  0  0  0  0  0  0  0  0  0  0  0
  -10.9370   12.0200   -8.8240 C   0  0  0  0  0  0  0  0  0  0  0  0
  -10.9840   10.5000   -8.7000 C   0  0  0  0  0  0  0  0  0  0  0  0
  -11.2240    9.9030   -9.9510 O   0  0  0  0  0  0  0  0  0  0  0  0
  -10.1480   10.1370  -10.8180 C   0  0  0  0  0  0  0  0  0  0  0  0
  -10.0490   11.6270  -11.1280 C   0  0  0  0  0  0  0  0  0  0  0  0
 27 28  1  0
 28 29  1  0
 29 30  1  0
 30 31  1  0
 31 26  1  0
 26 25  1  0
 25 24  1  0
 24  1  1  0
  1  2  2  0
  2  3  1  0
  3  4  2  0
  4  5  1  0
  5 34  1  0
 34 35  1  0
 35 36  1  0
 36 37  1  0
 37 38  1  0
 38 39  1  0
 39 40  1  0
  5  6  2  0
  4  7  1  0
  7 12  1  0
 12 14  1  0
 14 15  2  0
 15 16  1  0
 15 17  1  0
 17 18  2  0
 18 19  1  0
 19 20  2  0
 20 21  1  0
 21 22  1  0
 22 23  1  0
  7  8  1  0
  8  9  2  0
  9 10  1  0
 31 32  1  0
 32 33  1  0
 33 28  1  0
  6  1  1  0
 20 14  1  0
 10  3  1  0
 40 35  1  0
 23 19  1  0
 12 13  1  0
 10 11  1  0
M  END
> <meeko>
{"is_sidechain": false}

> <source_group>
FYN canonical

> <source_system>
FYN_saracatinib

> <source_run>
vina_seed3301_ex32

> <source_seed>
3301

> <vina_pose_rank>
2

> <vina_affinity_kcal_mol>
-9.0890000000000004

> <vina_rmsd_to_crystal_angstrom>
2.7443

> <minimizedAffinity>
-9.00064

> <CNNscore>
0.7443802357

> <CNNaffinity>
7.6855530739

> <CNN_VS>
5.7209739685

> <CNNaffinity_variance>
0.1598982364

$$$$
FYN_saracatinib__vina_seed3301_ex32__pose03


 40 45  0  0  0  0  0  0  0  0999 V2000
  -11.5720   15.8410   -9.0510 C   0  0  0  0  0  0  0  0  0  0  0  0
  -12.6300   16.6290   -9.2720 C   0  0  0  0  0  0  0  0  0  0  0  0
  -13.4890   16.3860  -10.2720 C   0  0  0  0  0  0  0  0  0  0  0  0
  -13.3490   15.3290  -11.1190 C   0  0  0  0  0  0  0  0  0  0  0  0
  -12.2830   14.5080  -10.9100 C   0  0  0  0  0  0  0  0  0  0  0  0
  -11.4400   14.7980   -9.8920 C   0  0  0  0  0  0  0  0  0  0  0  0
  -14.2930   15.2020  -12.0960 C   0  0  0  0  0  0  0  0  0  0  0  0
  -15.2270   16.0720  -12.1320 N   0  0  0  0  0  0  0  0  0  0  0  0
  -15.2680   17.0150  -11.2950 C   0  0  0  0  0  0  0  0  0  0  0  0
  -14.4430   17.2150  -10.3660 N   0  0  0  0  0  0  0  0  0  0  0  0
  -14.5350   17.9740   -9.7450 H   0  0  0  0  0  0  0  0  0  0  0  0
  -14.4900   14.3560  -13.0390 N   0  0  0  0  0  0  0  0  0  0  0  0
  -14.3100   13.3660  -12.7270 H   0  0  0  0  0  0  0  0  0  0  0  0
  -14.8480   14.3720  -14.2680 C   0  0  0  0  0  0  0  0  0  0  0  0
  -14.1060   15.0570  -15.1840 C   0  0  0  0  0  0  0  0  0  0  0  0
  -12.6570   15.9410  -14.7970 Cl  0  0  0  0  0  0  0  0  0  0  0  0
  -14.4480   15.0810  -16.4870 C   0  0  0  0  0  0  0  0  0  0  0  0
  -15.5360   14.4430  -16.9400 C   0  0  0  0  0  0  0  0  0  0  0  0
  -16.2750   13.7730  -16.0510 C   0  0  0  0  0  0  0  0  0  0  0  0
  -15.9410   13.7410  -14.7550 C   0  0  0  0  0  0  0  0  0  0  0  0
  -16.7640   13.0670  -14.1320 O   0  0  0  0  0  0  0  0  0  0  0  0
  -17.7860   12.6460  -15.0340 C   0  0  0  0  0  0  0  0  0  0  0  0
  -17.3020   13.1350  -16.2800 O   0  0  0  0  0  0  0  0  0  0  0  0
  -10.6820   16.0630   -8.0290 O   0  0  0  0  0  0  0  0  0  0  0  0
   -9.6460   15.1180   -7.9010 C   0  0  0  0  0  0  0  0  0  0  0  0
   -9.9860   14.0070   -6.8940 C   0  0  0  0  0  0  0  0  0  0  0  0
   -8.8390    9.1980   -9.6180 C   0  0  0  0  0  0  0  0  0  0  0  0
   -9.2170   10.5500   -9.2460 N   0  0  0  0  0  0  0  0  0  0  0  0
  -10.3030   10.5210   -8.2820 C   0  0  0  0  0  0  0  0  0  0  0  0
  -10.6890   11.9320   -7.8150 C   0  0  0  0  0  0  0  0  0  0  0  0
   -9.5560   12.6590   -7.2500 N   0  0  0  0  0  0  0  0  0  0  0  0
   -8.4900   12.6810   -8.2410 C   0  0  0  0  0  0  0  0  0  0  0  0
   -8.0840   11.2610   -8.6790 C   0  0  0  0  0  0  0  0  0  0  0  0
  -12.0340   13.4160  -11.7210 O   0  0  0  0  0  0  0  0  0  0  0  0
  -12.0210   12.0940  -11.2400 C   0  0  0  0  0  0  0  0  0  0  0  0
  -13.4120   11.5520  -10.9090 C   0  0  0  0  0  0  0  0  0  0  0  0
  -13.3880   10.0360  -10.7470 C   0  0  0  0  0  0  0  0  0  0  0  0
  -12.8730    9.4170  -11.9010 O   0  0  0  0  0  0  0  0  0  0  0  0
  -11.5240    9.7570  -12.0760 C   0  0  0  0  0  0  0  0  0  0  0  0
  -11.4020   11.2500  -12.3660 C   0  0  0  0  0  0  0  0  0  0  0  0
 27 28  1  0
 28 29  1  0
 29 30  1  0
 30 31  1  0
 31 26  1  0
 26 25  1  0
 25 24  1  0
 24  1  1  0
  1  2  2  0
  2  3  1  0
  3  4  2  0
  4  5  1  0
  5 34  1  0
 34 35  1  0
 35 36  1  0
 36 37  1  0
 37 38  1  0
 38 39  1  0
 39 40  1  0
  5  6  2  0
  4  7  1  0
  7 12  1  0
 12 14  1  0
 14 15  2  0
 15 16  1  0
 15 17  1  0
 17 18  2  0
 18 19  1  0
 19 20  2  0
 20 21  1  0
 21 22  1  0
 22 23  1  0
  7  8  1  0
  8  9  2  0
  9 10  1  0
 31 32  1  0
 32 33  1  0
 33 28  1  0
  6  1  1  0
 20 14  1  0
 10  3  1  0
 40 35  1  0
 23 19  1  0
 12 13  1  0
 10 11  1  0
M  END
> <meeko>
{"is_sidechain": false}

> <source_group>
FYN canonical

> <source_system>
FYN_saracatinib

> <source_run>
vina_seed3301_ex32

> <source_seed>
3301

> <vina_pose_rank>
3

> <vina_affinity_kcal_mol>
-8.9429999999999996

> <vina_rmsd_to_crystal_angstrom>
4.4965000000000002

> <minimizedAffinity>
-8.65387

> <CNNscore>
0.7718262076

> <CNNaffinity>
7.8560156822

> <CNN_VS>
6.0634789467

> <CNNaffinity_variance>
0.3404255807

$$$$
FYN_saracatinib__vina_seed3301_ex32__pose04


 40 45  0  0  0  0  0  0  0  0999 V2000
  -10.0180   15.8890   -7.4840 C   0  0  0  0  0  0  0  0  0  0  0  0
  -11.1130   16.6190   -7.7190 C   0  0  0  0  0  0  0  0  0  0  0  0
  -11.8870   16.3970   -8.7910 C   0  0  0  0  0  0  0  0  0  0  0  0
  -11.6180   15.4210   -9.7020 C   0  0  0  0  0  0  0  0  0  0  0  0
  -10.5100   14.6600   -9.4800 C   0  0  0  0  0  0  0  0  0  0  0  0
   -9.7570   14.9260   -8.3880 C   0  0  0  0  0  0  0  0  0  0  0  0
  -12.4860   15.3080  -10.7480 C   0  0  0  0  0  0  0  0  0  0  0  0
  -13.4760   16.1130  -10.7850 N   0  0  0  0  0  0  0  0  0  0  0  0
  -13.6380   16.9830   -9.8860 C   0  0  0  0  0  0  0  0  0  0  0  0
  -12.8910   17.1650   -8.8900 N   0  0  0  0  0  0  0  0  0  0  0  0
  -13.0760   17.8660   -8.2230 H   0  0  0  0  0  0  0  0  0  0  0  0
  -12.5610   14.5260  -11.7610 N   0  0  0  0  0  0  0  0  0  0  0  0
  -11.6420   14.0530  -11.9660 H   0  0  0  0  0  0  0  0  0  0  0  0
  -13.4460   14.1520  -12.6080 C   0  0  0  0  0  0  0  0  0  0  0  0
  -14.1700   13.0200  -12.3790 C   0  0  0  0  0  0  0  0  0  0  0  0
  -13.9800   12.0100  -10.9740 Cl  0  0  0  0  0  0  0  0  0  0  0  0
  -15.1190   12.6080  -13.2430 C   0  0  0  0  0  0  0  0  0  0  0  0
  -15.3850   13.2850  -14.3690 C   0  0  0  0  0  0  0  0  0  0  0  0
  -14.6780   14.3930  -14.6070 C   0  0  0  0  0  0  0  0  0  0  0  0
  -13.7360   14.8110  -13.7530 C   0  0  0  0  0  0  0  0  0  0  0  0
  -13.2210   15.8470  -14.1790 O   0  0  0  0  0  0  0  0  0  0  0  0
  -13.7890   16.1480  -15.4530 C   0  0  0  0  0  0  0  0  0  0  0  0
  -14.7800   15.1360  -15.5820 O   0  0  0  0  0  0  0  0  0  0  0  0
   -9.2130   16.0900   -6.3890 O   0  0  0  0  0  0  0  0  0  0  0  0
   -8.7400   17.4030   -6.2090 C   0  0  0  0  0  0  0  0  0  0  0  0
   -7.4020   17.4470   -5.4500 C   0  0  0  0  0  0  0  0  0  0  0  0
   -7.1820   22.8260   -3.7560 C   0  0  0  0  0  0  0  0  0  0  0  0
   -7.5040   21.5640   -4.3990 N   0  0  0  0  0  0  0  0  0  0  0  0
   -6.3370   21.0400   -5.0880 C   0  0  0  0  0  0  0  0  0  0  0  0
   -6.6190   19.6730   -5.7280 C   0  0  0  0  0  0  0  0  0  0  0  0
   -7.0930   18.6920   -4.7560 N   0  0  0  0  0  0  0  0  0  0  0  0
   -8.2670   19.2400   -4.0920 C   0  0  0  0  0  0  0  0  0  0  0  0
   -7.9670   20.5950   -3.4230 C   0  0  0  0  0  0  0  0  0  0  0  0
  -10.1320   13.6540  -10.3490 O   0  0  0  0  0  0  0  0  0  0  0  0
  -10.0110   12.3080   -9.9550 C   0  0  0  0  0  0  0  0  0  0  0  0
  -11.0260   11.8910   -8.8900 C   0  0  0  0  0  0  0  0  0  0  0  0
  -11.0980   10.3730   -8.7640 C   0  0  0  0  0  0  0  0  0  0  0  0
  -11.4040    9.7810  -10.0040 O   0  0  0  0  0  0  0  0  0  0  0  0
  -10.3600    9.9930  -10.9150 C   0  0  0  0  0  0  0  0  0  0  0  0
  -10.2430   11.4800  -11.2300 C   0  0  0  0  0  0  0  0  0  0  0  0
 27 28  1  0
 28 29  1  0
 29 30  1  0
 30 31  1  0
 31 26  1  0
 26 25  1  0
 25 24  1  0
 24  1  1  0
  1  2  2  0
  2  3  1  0
  3  4  2  0
  4  5  1  0
  5 34  1  0
 34 35  1  0
 35 36  1  0
 36 37  1  0
 37 38  1  0
 38 39  1  0
 39 40  1  0
  5  6  2  0
  4  7  1  0
  7 12  1  0
 12 14  1  0
 14 15  2  0
 15 16  1  0
 15 17  1  0
 17 18  2  0
 18 19  1  0
 19 20  2  0
 20 21  1  0
 21 22  1  0
 22 23  1  0
  7  8  1  0
  8  9  2  0
  9 10  1  0
 31 32  1  0
 32 33  1  0
 33 28  1  0
  6  1  1  0
 20 14  1  0
 10  3  1  0
 40 35  1  0
 23 19  1  0
 12 13  1  0
 10 11  1  0
M  END
> <meeko>
{"is_sidechain": false}

> <source_group>
FYN canonical

> <source_system>
FYN_saracatinib

> <source_run>
vina_seed3301_ex32

> <source_seed>
3301

> <vina_pose_rank>
4

> <vina_affinity_kcal_mol>
-8.9130000000000003

> <vina_rmsd_to_crystal_angstrom>
2.2136999999999998

> <minimizedAffinity>
-9.04318

> <CNNscore>
0.6090493202

> <CNNaffinity>
7.4166016579

> <CNN_VS>
4.5170760155

> <CNNaffinity_variance>
0.1756764054

$$$$
FYN_saracatinib__vina_seed3301_ex32__pose05


 40 45  0  0  0  0  0  0  0  0999 V2000
  -10.7220   13.0090   -7.6800 C   0  0  0  0  0  0  0  0  0  0  0  0
  -11.1840   14.2560   -7.8320 C   0  0  0  0  0  0  0  0  0  0  0  0
  -11.7240   14.6670   -8.9880 C   0  0  0  0  0  0  0  0  0  0  0  0
  -11.8430   13.8530  -10.0740 C   0  0  0  0  0  0  0  0  0  0  0  0
  -11.3850   12.5770   -9.9400 C   0  0  0  0  0  0  0  0  0  0  0  0
  -10.8430   12.2110   -8.7570 C   0  0  0  0  0  0  0  0  0  0  0  0
  -12.4070   14.4020  -11.1880 C   0  0  0  0  0  0  0  0  0  0  0  0
  -12.7820   15.6210  -11.1220 N   0  0  0  0  0  0  0  0  0  0  0  0
  -12.6290   16.2900  -10.0630 C   0  0  0  0  0  0  0  0  0  0  0  0
  -12.1170   15.8720   -8.9920 N   0  0  0  0  0  0  0  0  0  0  0  0
  -12.0280   16.4500   -8.1990 H   0  0  0  0  0  0  0  0  0  0  0  0
  -12.6840   13.9560  -12.3570 N   0  0  0  0  0  0  0  0  0  0  0  0
  -11.8540   13.4910  -12.8110 H   0  0  0  0  0  0  0  0  0  0  0  0
  -13.6950   13.9140  -13.1420 C   0  0  0  0  0  0  0  0  0  0  0  0
  -14.6790   12.9930  -12.9350 C   0  0  0  0  0  0  0  0  0  0  0  0
  -14.6670   11.8320  -11.6390 Cl  0  0  0  0  0  0  0  0  0  0  0  0
  -15.7620   12.9340  -13.7340 C   0  0  0  0  0  0  0  0  0  0  0  0
  -15.9170   13.7670  -14.7720 C   0  0  0  0  0  0  0  0  0  0  0  0
  -14.9560   14.6700  -14.9890 C   0  0  0  0  0  0  0  0  0  0  0  0
  -13.8780   14.7380  -14.1980 C   0  0  0  0  0  0  0  0  0  0  0  0
  -13.1350   15.6410  -14.5890 O   0  0  0  0  0  0  0  0  0  0  0  0
  -13.6910   16.2080  -15.7750 C   0  0  0  0  0  0  0  0  0  0  0  0
  -14.9240   15.5090  -15.8880 O   0  0  0  0  0  0  0  0  0  0  0  0
  -10.1730   12.5610   -6.5040 O   0  0  0  0  0  0  0  0  0  0  0  0
   -8.7940   12.2790   -6.5390 C   0  0  0  0  0  0  0  0  0  0  0  0
   -7.9940   13.1400   -5.5470 C   0  0  0  0  0  0  0  0  0  0  0  0
   -8.3810   18.6730   -4.5000 C   0  0  0  0  0  0  0  0  0  0  0  0
   -7.9300   17.3150   -4.7520 N   0  0  0  0  0  0  0  0  0  0  0  0
   -8.4660   16.4140   -3.7480 C   0  0  0  0  0  0  0  0  0  0  0  0
   -8.0640   14.9560   -4.0170 C   0  0  0  0  0  0  0  0  0  0  0  0
   -8.4700   14.5040   -5.3440 N   0  0  0  0  0  0  0  0  0  0  0  0
   -7.9090   15.4190   -6.3270 C   0  0  0  0  0  0  0  0  0  0  0  0
   -8.3450   16.8740   -6.0720 C   0  0  0  0  0  0  0  0  0  0  0  0
  -11.4390   11.6720  -10.9840 O   0  0  0  0  0  0  0  0  0  0  0  0
  -10.9750   10.3480  -10.8720 C   0  0  0  0  0  0  0  0  0  0  0  0
  -11.9990    9.3030  -11.3190 C   0  0  0  0  0  0  0  0  0  0  0  0
  -11.3420    7.9420  -11.5240 C   0  0  0  0  0  0  0  0  0  0  0  0
  -10.2840    8.0310  -12.4470 O   0  0  0  0  0  0  0  0  0  0  0  0
   -9.2520    8.8270  -11.9300 C   0  0  0  0  0  0  0  0  0  0  0  0
   -9.7360   10.2650  -11.7780 C   0  0  0  0  0  0  0  0  0  0  0  0
 27 28  1  0
 28 29  1  0
 29 30  1  0
 30 31  1  0
 31 26  1  0
 26 25  1  0
 25 24  1  0
 24  1  1  0
  1  2  2  0
  2  3  1  0
  3  4  2  0
  4  5  1  0
  5 34  1  0
 34 35  1  0
 35 36  1  0
 36 37  1  0
 37 38  1  0
 38 39  1  0
 39 40  1  0
  5  6  2  0
  4  7  1  0
  7 12  1  0
 12 14  1  0
 14 15  2  0
 15 16  1  0
 15 17  1  0
 17 18  2  0
 18 19  1  0
 19 20  2  0
 20 21  1  0
 21 22  1  0
 22 23  1  0
  7  8  1  0
  8  9  2  0
  9 10  1  0
 31 32  1  0
 32 33  1  0
 33 28  1  0
  6  1  1  0
 20 14  1  0
 10  3  1  0
 40 35  1  0
 23 19  1  0
 12 13  1  0
 10 11  1  0
M  END
> <meeko>
{"is_sidechain": false}

> <source_group>
FYN canonical

> <source_system>
FYN_saracatinib

> <source_run>
vina_seed3301_ex32

> <source_seed>
3301

> <vina_pose_rank>
5

> <vina_affinity_kcal_mol>
-8.8949999999999996

> <vina_rmsd_to_crystal_angstrom>
2.8043

> <minimizedAffinity>
-8.76627

> <CNNscore>
0.2917462885

> <CNNaffinity>
7.2329998016

> <CNN_VS>
2.1102008820

> <CNNaffinity_variance>
0.1861776561

$$$$
FYN_saracatinib__vina_seed3301_ex32__pose06


 40 45  0  0  0  0  0  0  0  0999 V2000
  -10.2560   15.6400   -7.7440 C   0  0  0  0  0  0  0  0  0  0  0  0
  -11.3320   16.3990   -7.9790 C   0  0  0  0  0  0  0  0  0  0  0  0
  -12.0880   16.2260   -9.0720 C   0  0  0  0  0  0  0  0  0  0  0  0
  -11.8200   15.2710  -10.0070 C   0  0  0  0  0  0  0  0  0  0  0  0
  -10.7320   14.4810   -9.7860 C   0  0  0  0  0  0  0  0  0  0  0  0
   -9.9970   14.7000   -8.6720 C   0  0  0  0  0  0  0  0  0  0  0  0
  -12.6680   15.2070  -11.0730 C   0  0  0  0  0  0  0  0  0  0  0  0
  -13.6410   16.0330  -11.1050 N   0  0  0  0  0  0  0  0  0  0  0  0
  -13.8040   16.8800  -10.1830 C   0  0  0  0  0  0  0  0  0  0  0  0
  -13.0740   17.0160   -9.1680 N   0  0  0  0  0  0  0  0  0  0  0  0
  -13.2590   17.7000   -8.4830 H   0  0  0  0  0  0  0  0  0  0  0  0
  -12.7380   14.4580  -12.1110 N   0  0  0  0  0  0  0  0  0  0  0  0
  -11.8170   13.9930  -12.3270 H   0  0  0  0  0  0  0  0  0  0  0  0
  -13.6190   14.1100  -12.9720 C   0  0  0  0  0  0  0  0  0  0  0  0
  -14.3890   13.0070  -12.7500 C   0  0  0  0  0  0  0  0  0  0  0  0
  -14.2640   12.0020  -11.3340 Cl  0  0  0  0  0  0  0  0  0  0  0  0
  -15.3350   12.6230  -13.6300 C   0  0  0  0  0  0  0  0  0  0  0  0
  -15.5540   13.3000  -14.7660 C   0  0  0  0  0  0  0  0  0  0  0  0
  -14.8020   14.3790  -14.9980 C   0  0  0  0  0  0  0  0  0  0  0  0
  -13.8620   14.7700  -14.1280 C   0  0  0  0  0  0  0  0  0  0  0  0
  -13.3010   15.7830  -14.5510 O   0  0  0  0  0  0  0  0  0  0  0  0
  -13.8320   16.0940  -15.8380 C   0  0  0  0  0  0  0  0  0  0  0  0
  -14.8570   15.1170  -15.9800 O   0  0  0  0  0  0  0  0  0  0  0  0
   -9.4700   15.7920   -6.6280 O   0  0  0  0  0  0  0  0  0  0  0  0
   -8.2780   15.0440   -6.6110 C   0  0  0  0  0  0  0  0  0  0  0  0
   -8.1890   14.1080   -5.3940 C   0  0  0  0  0  0  0  0  0  0  0  0
   -7.3390    9.1270   -7.9100 C   0  0  0  0  0  0  0  0  0  0  0  0
   -7.5540   10.5300   -7.5990 N   0  0  0  0  0  0  0  0  0  0  0  0
   -8.7980   10.6970   -6.8690 C   0  0  0  0  0  0  0  0  0  0  0  0
   -9.0300   12.1610   -6.4660 C   0  0  0  0  0  0  0  0  0  0  0  0
   -7.9260   12.7010   -5.6780 N   0  0  0  0  0  0  0  0  0  0  0  0
   -6.6980   12.5300   -6.4390 C   0  0  0  0  0  0  0  0  0  0  0  0
   -6.4540   11.0540   -6.8100 C   0  0  0  0  0  0  0  0  0  0  0  0
  -10.3570   13.4940  -10.6780 O   0  0  0  0  0  0  0  0  0  0  0  0
  -10.3250   12.1290  -10.3390 C   0  0  0  0  0  0  0  0  0  0  0  0
  -11.4100   11.7240   -9.3400 C   0  0  0  0  0  0  0  0  0  0  0  0
  -11.5680   10.2080   -9.2840 C   0  0  0  0  0  0  0  0  0  0  0  0
  -11.8450    9.6860  -10.5610 O   0  0  0  0  0  0  0  0  0  0  0  0
  -10.7490    9.8780  -11.4140 C   0  0  0  0  0  0  0  0  0  0  0  0
  -10.5400   11.3690  -11.6580 C   0  0  0  0  0  0  0  0  0  0  0  0
 27 28  1  0
 28 29  1  0
 29 30  1  0
 30 31  1  0
 31 26  1  0
 26 25  1  0
 25 24  1  0
 24  1  1  0
  1  2  2  0
  2  3  1  0
  3  4  2  0
  4  5  1  0
  5 34  1  0
 34 35  1  0
 35 36  1  0
 36 37  1  0
 37 38  1  0
 38 39  1  0
 39 40  1  0
  5  6  2  0
  4  7  1  0
  7 12  1  0
 12 14  1  0
 14 15  2  0
 15 16  1  0
 15 17  1  0
 17 18  2  0
 18 19  1  0
 19 20  2  0
 20 21  1  0
 21 22  1  0
 22 23  1  0
  7  8  1  0
  8  9  2  0
  9 10  1  0
 31 32  1  0
 32 33  1  0
 33 28  1  0
  6  1  1  0
 20 14  1  0
 10  3  1  0
 40 35  1  0
 23 19  1  0
 12 13  1  0
 10 11  1  0
M  END
> <meeko>
{"is_sidechain": false}

> <source_group>
FYN canonical

> <source_system>
FYN_saracatinib

> <source_run>
vina_seed3301_ex32

> <source_seed>
3301

> <vina_pose_rank>
6

> <vina_affinity_kcal_mol>
-8.8849999999999998

> <vina_rmsd_to_crystal_angstrom>
3.3696999999999999

> <minimizedAffinity>
-8.64216

> <CNNscore>
0.3796747029

> <CNNaffinity>
7.3449950218

> <CNN_VS>
2.7887086868

> <CNNaffinity_variance>
0.1862903386

$$$$
FYN_saracatinib__vina_seed3301_ex32__pose07


 40 45  0  0  0  0  0  0  0  0999 V2000
  -10.1840   16.0070   -7.3370 C   0  0  0  0  0  0  0  0  0  0  0  0
  -11.2880   16.7010   -7.6360 C   0  0  0  0  0  0  0  0  0  0  0  0
  -11.9770   16.4710   -8.7630 C   0  0  0  0  0  0  0  0  0  0  0  0
  -11.6080   15.5220   -9.6690 C   0  0  0  0  0  0  0  0  0  0  0  0
  -10.4900   14.7980   -9.3820 C   0  0  0  0  0  0  0  0  0  0  0  0
   -9.8250   15.0720   -8.2360 C   0  0  0  0  0  0  0  0  0  0  0  0
  -12.3960   15.3960  -10.7750 C   0  0  0  0  0  0  0  0  0  0  0  0
  -13.4120   16.1650  -10.8680 N   0  0  0  0  0  0  0  0  0  0  0  0
  -13.6680   17.0120   -9.9680 C   0  0  0  0  0  0  0  0  0  0  0  0
  -13.0000   17.2020   -8.9200 N   0  0  0  0  0  0  0  0  0  0  0  0
  -13.2580   17.8830   -8.2560 H   0  0  0  0  0  0  0  0  0  0  0  0
  -12.3710   14.6320  -11.8030 N   0  0  0  0  0  0  0  0  0  0  0  0
  -11.4030   14.5480  -12.2110 H   0  0  0  0  0  0  0  0  0  0  0  0
  -13.1980   13.9320  -12.4860 C   0  0  0  0  0  0  0  0  0  0  0  0
  -13.5760   14.3470  -13.7290 C   0  0  0  0  0  0  0  0  0  0  0  0
  -12.9980   15.8040  -14.4860 Cl  0  0  0  0  0  0  0  0  0  0  0  0
  -14.4340   13.6260  -14.4770 C   0  0  0  0  0  0  0  0  0  0  0  0
  -14.9610   12.4770  -14.0320 C   0  0  0  0  0  0  0  0  0  0  0  0
  -14.6020   12.0630  -12.8140 C   0  0  0  0  0  0  0  0  0  0  0  0
  -13.7490   12.7720  -12.0640 C   0  0  0  0  0  0  0  0  0  0  0  0
  -13.5690   12.1980  -10.9870 O   0  0  0  0  0  0  0  0  0  0  0  0
  -14.4000   11.0390  -10.9440 C   0  0  0  0  0  0  0  0  0  0  0  0
  -14.9830   11.0430  -12.2410 O   0  0  0  0  0  0  0  0  0  0  0  0
   -9.4660   16.2180   -6.1850 O   0  0  0  0  0  0  0  0  0  0  0  0
   -8.2850   15.4630   -6.0530 C   0  0  0  0  0  0  0  0  0  0  0  0
   -8.4070   14.3630   -4.9860 C   0  0  0  0  0  0  0  0  0  0  0  0
   -7.0560    9.6990   -7.8630 C   0  0  0  0  0  0  0  0  0  0  0  0
   -7.4520   11.0340   -7.4500 N   0  0  0  0  0  0  0  0  0  0  0  0
   -8.6270   10.9670   -6.5990 C   0  0  0  0  0  0  0  0  0  0  0  0
   -9.0400   12.3560   -6.0890 C   0  0  0  0  0  0  0  0  0  0  0  0
   -7.9600   13.0300   -5.3760 N   0  0  0  0  0  0  0  0  0  0  0  0
   -6.8030   13.0910   -6.2580 C   0  0  0  0  0  0  0  0  0  0  0  0
   -6.3720   11.6920   -6.7380 C   0  0  0  0  0  0  0  0  0  0  0  0
  -10.0140   13.8240  -10.2390 O   0  0  0  0  0  0  0  0  0  0  0  0
   -9.9350   12.4650   -9.8820 C   0  0  0  0  0  0  0  0  0  0  0  0
  -11.1330   11.9780   -9.0660 C   0  0  0  0  0  0  0  0  0  0  0  0
  -11.1830   10.4540   -9.0180 C   0  0  0  0  0  0  0  0  0  0  0  0
  -11.2100    9.9130  -10.3170 O   0  0  0  0  0  0  0  0  0  0  0  0
  -10.0090   10.1880  -10.9850 C   0  0  0  0  0  0  0  0  0  0  0  0
   -9.8760   11.6910  -11.2100 C   0  0  0  0  0  0  0  0  0  0  0  0
 27 28  1  0
 28 29  1  0
 29 30  1  0
 30 31  1  0
 31 26  1  0
 26 25  1  0
 25 24  1  0
 24  1  1  0
  1  2  2  0
  2  3  1  0
  3  4  2  0
  4  5  1  0
  5 34  1  0
 34 35  1  0
 35 36  1  0
 36 37  1  0
 37 38  1  0
 38 39  1  0
 39 40  1  0
  5  6  2  0
  4  7  1  0
  7 12  1  0
 12 14  1  0
 14 15  2  0
 15 16  1  0
 15 17  1  0
 17 18  2  0
 18 19  1  0
 19 20  2  0
 20 21  1  0
 21 22  1  0
 22 23  1  0
  7  8  1  0
  8  9  2  0
  9 10  1  0
 31 32  1  0
 32 33  1  0
 33 28  1  0
  6  1  1  0
 20 14  1  0
 10  3  1  0
 40 35  1  0
 23 19  1  0
 12 13  1  0
 10 11  1  0
M  END
> <meeko>
{"is_sidechain": false}

> <source_group>
FYN canonical

> <source_system>
FYN_saracatinib

> <source_run>
vina_seed3301_ex32

> <source_seed>
3301

> <vina_pose_rank>
7

> <vina_affinity_kcal_mol>
-8.8070000000000004

> <vina_rmsd_to_crystal_angstrom>
3.7170999999999998

> <minimizedAffinity>
-8.46393

> <CNNscore>
0.5568738580

> <CNNaffinity>
7.3621973991

> <CNN_VS>
4.0998153687

> <CNNaffinity_variance>
0.4092413187

$$$$
FYN_saracatinib__vina_seed3301_ex32__pose08


 40 45  0  0  0  0  0  0  0  0999 V2000
   -9.8770   15.7410   -7.3460 C   0  0  0  0  0  0  0  0  0  0  0  0
  -10.9600   16.4930   -7.5740 C   0  0  0  0  0  0  0  0  0  0  0  0
  -11.7150   16.3200   -8.6680 C   0  0  0  0  0  0  0  0  0  0  0  0
  -11.4390   15.3750   -9.6100 C   0  0  0  0  0  0  0  0  0  0  0  0
  -10.3450   14.5940   -9.3960 C   0  0  0  0  0  0  0  0  0  0  0  0
   -9.6100   14.8100   -8.2810 C   0  0  0  0  0  0  0  0  0  0  0  0
  -12.2880   15.3120  -10.6760 C   0  0  0  0  0  0  0  0  0  0  0  0
  -13.2680   16.1290  -10.7010 N   0  0  0  0  0  0  0  0  0  0  0  0
  -13.4380   16.9670   -9.7730 C   0  0  0  0  0  0  0  0  0  0  0  0
  -12.7090   17.1030   -8.7570 N   0  0  0  0  0  0  0  0  0  0  0  0
  -12.8990   17.7800   -8.0670 H   0  0  0  0  0  0  0  0  0  0  0  0
  -12.3520   14.5700  -11.7190 N   0  0  0  0  0  0  0  0  0  0  0  0
  -11.4160   14.4720  -12.1950 H   0  0  0  0  0  0  0  0  0  0  0  0
  -13.2410   13.9050  -12.3570 C   0  0  0  0  0  0  0  0  0  0  0  0
  -13.7250   14.3780  -13.5410 C   0  0  0  0  0  0  0  0  0  0  0  0
  -13.2080   15.8680  -14.2780 Cl  0  0  0  0  0  0  0  0  0  0  0  0
  -14.6500   13.6940  -14.2430 C   0  0  0  0  0  0  0  0  0  0  0  0
  -15.1420   12.5270  -13.8070 C   0  0  0  0  0  0  0  0  0  0  0  0
  -14.6800   12.0550  -12.6460 C   0  0  0  0  0  0  0  0  0  0  0  0
  -13.7590   12.7270  -11.9420 C   0  0  0  0  0  0  0  0  0  0  0  0
  -13.4870   12.1030  -10.9140 O   0  0  0  0  0  0  0  0  0  0  0  0
  -14.3190   10.9450  -10.8510 C   0  0  0  0  0  0  0  0  0  0  0  0
  -15.0150   11.0100  -12.0900 O   0  0  0  0  0  0  0  0  0  0  0  0
   -9.0920   15.8920   -6.2290 O   0  0  0  0  0  0  0  0  0  0  0  0
   -9.1360   17.1570   -5.6150 C   0  0  0  0  0  0  0  0  0  0  0  0
   -7.7980   17.9090   -5.7220 C   0  0  0  0  0  0  0  0  0  0  0  0
   -6.8880   22.8800   -3.2080 C   0  0  0  0  0  0  0  0  0  0  0  0
   -6.8570   21.4930   -3.6390 N   0  0  0  0  0  0  0  0  0  0  0  0
   -8.1540   20.8730   -3.4280 C   0  0  0  0  0  0  0  0  0  0  0  0
   -8.1810   19.4230   -3.9310 C   0  0  0  0  0  0  0  0  0  0  0  0
   -7.8150   19.3160   -5.3400 N   0  0  0  0  0  0  0  0  0  0  0  0
   -6.5090   19.9350   -5.5180 C   0  0  0  0  0  0  0  0  0  0  0  0
   -6.4980   21.4000   -5.0430 C   0  0  0  0  0  0  0  0  0  0  0  0
   -9.9610   13.6170  -10.2960 O   0  0  0  0  0  0  0  0  0  0  0  0
   -9.8200   12.2630   -9.9400 C   0  0  0  0  0  0  0  0  0  0  0  0
  -10.8480   11.7930   -8.9100 C   0  0  0  0  0  0  0  0  0  0  0  0
  -10.8920   10.2700   -8.8320 C   0  0  0  0  0  0  0  0  0  0  0  0
  -11.1590    9.7110  -10.0950 O   0  0  0  0  0  0  0  0  0  0  0  0
  -10.1000    9.9710  -10.9760 C   0  0  0  0  0  0  0  0  0  0  0  0
  -10.0080   11.4700  -11.2430 C   0  0  0  0  0  0  0  0  0  0  0  0
 27 28  1  0
 28 29  1  0
 29 30  1  0
 30 31  1  0
 31 26  1  0
 26 25  1  0
 25 24  1  0
 24  1  1  0
  1  2  2  0
  2  3  1  0
  3  4  2  0
  4  5  1  0
  5 34  1  0
 34 35  1  0
 35 36  1  0
 36 37  1  0
 37 38  1  0
 38 39  1  0
 39 40  1  0
  5  6  2  0
  4  7  1  0
  7 12  1  0
 12 14  1  0
 14 15  2  0
 15 16  1  0
 15 17  1  0
 17 18  2  0
 18 19  1  0
 19 20  2  0
 20 21  1  0
 21 22  1  0
 22 23  1  0
  7  8  1  0
  8  9  2  0
  9 10  1  0
 31 32  1  0
 32 33  1  0
 33 28  1  0
  6  1  1  0
 20 14  1  0
 10  3  1  0
 40 35  1  0
 23 19  1  0
 12 13  1  0
 10 11  1  0
M  END
> <meeko>
{"is_sidechain": false}

> <source_group>
FYN canonical

> <source_system>
FYN_saracatinib

> <source_run>
vina_seed3301_ex32

> <source_seed>
3301

> <vina_pose_rank>
8

> <vina_affinity_kcal_mol>
-8.7569999999999997

> <vina_rmsd_to_crystal_angstrom>
3.1038999999999999

> <minimizedAffinity>
-8.77188

> <CNNscore>
0.8754591346

> <CNNaffinity>
7.8391747475

> <CNN_VS>
6.8628773689

> <CNNaffinity_variance>
0.2990072370

$$$$
FYN_saracatinib__vina_seed3301_ex32__pose09


 40 45  0  0  0  0  0  0  0  0999 V2000
   -9.6230   16.3840   -6.6620 C   0  0  0  0  0  0  0  0  0  0  0  0
  -10.6900   17.0860   -7.0590 C   0  0  0  0  0  0  0  0  0  0  0  0
  -11.4020   16.7300   -8.1370 C   0  0  0  0  0  0  0  0  0  0  0  0
  -11.0960   15.6390   -8.8920 C   0  0  0  0  0  0  0  0  0  0  0  0
  -10.0170   14.9040   -8.5040 C   0  0  0  0  0  0  0  0  0  0  0  0
   -9.3260   15.3070   -7.4130 C   0  0  0  0  0  0  0  0  0  0  0  0
  -11.9020   15.3950   -9.9660 C   0  0  0  0  0  0  0  0  0  0  0  0
  -12.8740   16.1970  -10.1690 N   0  0  0  0  0  0  0  0  0  0  0  0
  -13.0740   17.1810   -9.4060 C   0  0  0  0  0  0  0  0  0  0  0  0
  -12.3850   17.4870   -8.3980 N   0  0  0  0  0  0  0  0  0  0  0  0
  -12.5980   18.2720   -7.8430 H   0  0  0  0  0  0  0  0  0  0  0  0
  -11.9300   14.4860  -10.8690 N   0  0  0  0  0  0  0  0  0  0  0  0
  -10.9720   14.2880  -11.2630 H   0  0  0  0  0  0  0  0  0  0  0  0
  -12.8010   13.7400  -11.4370 C   0  0  0  0  0  0  0  0  0  0  0  0
  -13.0360   12.4840  -10.9610 C   0  0  0  0  0  0  0  0  0  0  0  0
  -12.2160   11.7940   -9.5900 Cl  0  0  0  0  0  0  0  0  0  0  0  0
  -13.9570   11.6800  -11.5290 C   0  0  0  0  0  0  0  0  0  0  0  0
  -14.6750   12.0730  -12.5900 C   0  0  0  0  0  0  0  0  0  0  0  0
  -14.4490   13.2990  -13.0700 C   0  0  0  0  0  0  0  0  0  0  0  0
  -13.5380   14.1060  -12.5110 C   0  0  0  0  0  0  0  0  0  0  0  0
  -13.5060   15.1780  -13.1190 O   0  0  0  0  0  0  0  0  0  0  0  0
  -14.4070   15.1030  -14.2230 C   0  0  0  0  0  0  0  0  0  0  0  0
  -15.0050   13.8270  -14.0320 O   0  0  0  0  0  0  0  0  0  0  0  0
   -8.8810   16.7220   -5.5560 O   0  0  0  0  0  0  0  0  0  0  0  0
   -8.7910   15.7380   -4.5540 C   0  0  0  0  0  0  0  0  0  0  0  0
   -7.5260   15.8910   -3.6940 C   0  0  0  0  0  0  0  0  0  0  0  0
   -9.3460   14.1500    1.3580 C   0  0  0  0  0  0  0  0  0  0  0  0
   -9.2260   14.5870   -0.0230 N   0  0  0  0  0  0  0  0  0  0  0  0
   -8.5920   15.8920   -0.0820 C   0  0  0  0  0  0  0  0  0  0  0  0
   -8.3890   16.3610   -1.5300 C   0  0  0  0  0  0  0  0  0  0  0  0
   -7.6160   15.4080   -2.3200 N   0  0  0  0  0  0  0  0  0  0  0  0
   -8.2800   14.1150   -2.2500 C   0  0  0  0  0  0  0  0  0  0  0  0
   -8.4500   13.6340   -0.7960 C   0  0  0  0  0  0  0  0  0  0  0  0
   -9.6050   13.7870   -9.2080 O   0  0  0  0  0  0  0  0  0  0  0  0
   -8.7960   12.7840   -8.6430 C   0  0  0  0  0  0  0  0  0  0  0  0
   -9.5280   11.9130   -7.6220 C   0  0  0  0  0  0  0  0  0  0  0  0
   -8.7410   10.6420   -7.3180 C   0  0  0  0  0  0  0  0  0  0  0  0
   -8.4820    9.9190   -8.4970 O   0  0  0  0  0  0  0  0  0  0  0  0
   -7.6300   10.6480   -9.3380 C   0  0  0  0  0  0  0  0  0  0  0  0
   -8.3380   11.9090   -9.8220 C   0  0  0  0  0  0  0  0  0  0  0  0
 27 28  1  0
 28 29  1  0
 29 30  1  0
 30 31  1  0
 31 26  1  0
 26 25  1  0
 25 24  1  0
 24  1  1  0
  1  2  2  0
  2  3  1  0
  3  4  2  0
  4  5  1  0
  5 34  1  0
 34 35  1  0
 35 36  1  0
 36 37  1  0
 37 38  1  0
 38 39  1  0
 39 40  1  0
  5  6  2  0
  4  7  1  0
  7 12  1  0
 12 14  1  0
 14 15  2  0
 15 16  1  0
 15 17  1  0
 17 18  2  0
 18 19  1  0
 19 20  2  0
 20 21  1  0
 21 22  1  0
 22 23  1  0
  7  8  1  0
  8  9  2  0
  9 10  1  0
 31 32  1  0
 32 33  1  0
 33 28  1  0
  6  1  1  0
 20 14  1  0
 10  3  1  0
 40 35  1  0
 23 19  1  0
 12 13  1  0
 10 11  1  0
M  END
> <meeko>
{"is_sidechain": false}

> <source_group>
FYN canonical

> <source_system>
FYN_saracatinib

> <source_run>
vina_seed3301_ex32

> <source_seed>
3301

> <vina_pose_rank>
9

> <vina_affinity_kcal_mol>
-8.6140000000000008

> <vina_rmsd_to_crystal_angstrom>
2.3837000000000002

> <minimizedAffinity>
-8.90090

> <CNNscore>
0.5538884401

> <CNNaffinity>
7.3463878632

> <CNN_VS>
4.0690793991

> <CNNaffinity_variance>
0.1062801704

$$$$
