BACE1_verubecestat__canonical_obabel_seed5519_ex32__pose01
     RDKit          3D

 45 47  0  0  0  0  0  0  0  0999 V2000
   23.1350   11.7370   25.0810 C   0  0  0  0  0  0  0  0  0  0  0  0
   22.5220   11.1630   23.8670 N   0  0  0  0  0  0  0  0  0  0  0  0
   22.4580    9.7730   23.6200 C   0  0  0  0  0  0  0  0  0  0  0  0
   22.8760    9.0020   24.6710 N   0  0  0  0  0  0  0  0  0  0  0  0
   22.0220    9.2570   22.5130 N   0  0  0  0  0  0  0  0  0  0  0  0
   21.6670   10.0890   21.3640 C   0  0  2  0  0  0  0  0  0  0  0  0
   20.7950    9.1550   20.5200 C   0  0  0  0  0  0  0  0  0  0  0  0
   22.8890   10.4870   20.5500 C   0  0  0  0  0  0  0  0  0  0  0  0
   24.1720   10.1120   20.9460 C   0  0  0  0  0  0  0  0  0  0  0  0
   25.2940   10.4610   20.2310 C   0  0  0  0  0  0  0  0  0  0  0  0
   26.5240   10.0180   20.7360 N   0  0  0  0  0  0  0  0  0  0  0  0
   27.6480   10.7670   21.0340 C   0  0  0  0  0  0  0  0  0  0  0  0
   27.7920   11.9550   20.7740 O   0  0  0  0  0  0  0  0  0  0  0  0
   28.7210   10.0400   21.7540 C   0  0  0  0  0  0  0  0  0  0  0  0
   28.6420    8.6670   21.9080 C   0  0  0  0  0  0  0  0  0  0  0  0
   29.6700    8.0390   22.5890 C   0  0  0  0  0  0  0  0  0  0  0  0
   30.7230    8.7840   23.0830 C   0  0  0  0  0  0  0  0  0  0  0  0
   31.7390    8.2200   23.7590 F   0  0  0  0  0  0  0  0  0  0  0  0
   30.7100   10.1460   22.8850 C   0  0  0  0  0  0  0  0  0  0  0  0
   29.7240   10.7840   22.2320 N   0  0  0  0  0  0  0  0  0  0  0  0
   25.1810   11.1950   19.0560 C   0  0  0  0  0  0  0  0  0  0  0  0
   23.9150   11.5790   18.6500 C   0  0  0  0  0  0  0  0  0  0  0  0
   22.8000   11.2490   19.3950 C   0  0  0  0  0  0  0  0  0  0  0  0
   21.5720   11.6630   18.9890 F   0  0  0  0  0  0  0  0  0  0  0  0
   20.7890   11.2380   21.8060 C   0  0  0  0  0  0  0  0  0  0  0  0
   21.6710   12.3130   22.9090 S   0  0  0  0  0  0  0  0  0  0  0  0
   20.6760   12.9330   23.7660 O   0  0  0  0  0  0  0  0  0  0  0  0
   22.7070   13.0280   22.2330 O   0  0  0  0  0  0  0  0  0  0  0  0
   22.6647   11.2966   25.9725 H   0  0  0  0  0  0  0  0  0  0  0  0
   24.2124   11.5155   25.0875 H   0  0  0  0  0  0  0  0  0  0  0  0
   22.9847   12.8267   25.0875 H   0  0  0  0  0  0  0  0  0  0  0  0
   22.8680    8.0210   24.5950 H   0  0  0  0  0  0  0  0  0  0  0  0
   23.1840    9.4290   25.5030 H   0  0  0  0  0  0  0  0  0  0  0  0
   20.1961    8.5136   21.1833 H   0  0  0  0  0  0  0  0  0  0  0  0
   20.1247    9.7532   19.8852 H   0  0  0  0  0  0  0  0  0  0  0  0
   21.4377    8.5273   19.8852 H   0  0  0  0  0  0  0  0  0  0  0  0
   24.2913    9.5159   21.8627 H   0  0  0  0  0  0  0  0  0  0  0  0
   26.5960    9.0500   20.9010 H   0  0  0  0  0  0  0  0  0  0  0  0
   27.7932    8.0958   21.5039 H   0  0  0  0  0  0  0  0  0  0  0  0
   29.6486    6.9492   22.7366 H   0  0  0  0  0  0  0  0  0  0  0  0
   31.5468   10.7407   23.2802 H   0  0  0  0  0  0  0  0  0  0  0  0
   26.0706   11.4624   18.4669 H   0  0  0  0  0  0  0  0  0  0  0  0
   23.7951   12.1552   17.7207 H   0  0  0  0  0  0  0  0  0  0  0  0
   20.4706   11.8100   20.9220 H   0  0  0  0  0  0  0  0  0  0  0  0
   19.9133   10.8315   22.3332 H   0  0  0  0  0  0  0  0  0  0  0  0
  1  2  1  0
  2  3  1  0
  3  4  1  0
  3  5  2  0
  5  6  1  0
  6  7  1  6
  6  8  1  0
  8  9  2  0
  9 10  1  0
 10 11  1  0
 11 12  1  0
 12 13  2  0
 12 14  1  0
 14 15  2  0
 15 16  1  0
 16 17  2  0
 17 18  1  0
 17 19  1  0
 19 20  2  0
 10 21  2  0
 21 22  1  0
 22 23  2  0
 23 24  1  0
  6 25  1  0
 25 26  1  0
 26 27  2  0
 26 28  2  0
 26  2  1  0
 23  8  1  0
 20 14  1  0
  1 29  1  0
  1 30  1  0
  1 31  1  0
  4 32  1  0
  4 33  1  0
  7 34  1  0
  7 35  1  0
  7 36  1  0
  9 37  1  0
 11 38  1  0
 15 39  1  0
 16 40  1  0
 19 41  1  0
 21 42  1  0
 22 43  1  0
 25 44  1  0
 25 45  1  0
M  END
>  <meeko>  (1)
{"is_sidechain": false}

>  <source_group>  (1)
BACE1 canonical

>  <source_system>  (1)
BACE1_verubecestat

>  <source_run>  (1)
canonical_obabel_seed5519_ex32

>  <source_seed>  (1)
5519

>  <vina_pose_rank>  (1)
1

>  <vina_affinity_kcal_mol>  (1)
-9.5310000000000006

>  <vina_rmsd_to_crystal_angstrom>  (1)
0.95420000000000005

$$$$
BACE1_verubecestat__canonical_obabel_seed5519_ex32__pose02
     RDKit          3D

 45 47  0  0  0  0  0  0  0  0999 V2000
   16.9180   14.8440   25.3260 C   0  0  0  0  0  0  0  0  0  0  0  0
   18.0120   14.4460   26.2330 N   0  0  0  0  0  0  0  0  0  0  0  0
   19.2100   15.1840   26.3640 C   0  0  0  0  0  0  0  0  0  0  0  0
   19.2050   16.3770   25.6930 N   0  0  0  0  0  0  0  0  0  0  0  0
   20.2240   14.7920   27.0730 N   0  0  0  0  0  0  0  0  0  0  0  0
   20.2560   13.4750   27.7070 C   0  0  2  0  0  0  0  0  0  0  0  0
   21.3460   13.6330   28.7710 C   0  0  0  0  0  0  0  0  0  0  0  0
   20.6750   12.3840   26.7340 C   0  0  0  0  0  0  0  0  0  0  0  0
   21.0650   12.6910   25.4310 C   0  0  0  0  0  0  0  0  0  0  0  0
   21.4460   11.7240   24.5290 C   0  0  0  0  0  0  0  0  0  0  0  0
   21.8180   12.1670   23.2530 N   0  0  0  0  0  0  0  0  0  0  0  0
   23.0860   12.4670   22.7860 C   0  0  0  0  0  0  0  0  0  0  0  0
   24.0970   12.5140   23.4740 O   0  0  0  0  0  0  0  0  0  0  0  0
   23.1810   12.7080   21.3260 C   0  0  0  0  0  0  0  0  0  0  0  0
   22.0300   12.7780   20.5600 C   0  0  0  0  0  0  0  0  0  0  0  0
   22.1780   13.0030   19.2030 C   0  0  0  0  0  0  0  0  0  0  0  0
   23.4410   13.1510   18.6630 C   0  0  0  0  0  0  0  0  0  0  0  0
   23.6350   13.3610   17.3500 F   0  0  0  0  0  0  0  0  0  0  0  0
   24.5260   13.0590   19.5060 C   0  0  0  0  0  0  0  0  0  0  0  0
   24.4150   12.8360   20.8250 N   0  0  0  0  0  0  0  0  0  0  0  0
   21.4750   10.3860   24.9030 C   0  0  0  0  0  0  0  0  0  0  0  0
   21.0870   10.0620   26.1910 C   0  0  0  0  0  0  0  0  0  0  0  0
   20.6770   11.0400   27.0750 C   0  0  0  0  0  0  0  0  0  0  0  0
   20.2730   10.6920   28.3240 F   0  0  0  0  0  0  0  0  0  0  0  0
   18.9570   13.2190   28.4370 C   0  0  0  0  0  0  0  0  0  0  0  0
   17.5980   13.1580   27.2960 S   0  0  0  0  0  0  0  0  0  0  0  0
   16.4190   13.5720   28.0350 O   0  0  0  0  0  0  0  0  0  0  0  0
   17.6590   11.9960   26.4650 O   0  0  0  0  0  0  0  0  0  0  0  0
   16.0472   15.1608   25.9188 H   0  0  0  0  0  0  0  0  0  0  0  0
   17.2527   15.6780   24.6916 H   0  0  0  0  0  0  0  0  0  0  0  0
   16.6386   13.9899   24.6916 H   0  0  0  0  0  0  0  0  0  0  0  0
   19.9950   16.9630   25.7250 H   0  0  0  0  0  0  0  0  0  0  0  0
   18.4100   16.6500   25.1800 H   0  0  0  0  0  0  0  0  0  0  0  0
   20.8939   13.5675   29.7716 H   0  0  0  0  0  0  0  0  0  0  0  0
   22.0924   12.8337   28.6528 H   0  0  0  0  0  0  0  0  0  0  0  0
   21.8347   14.6114   28.6528 H   0  0  0  0  0  0  0  0  0  0  0  0
   21.0683   13.7439   25.1126 H   0  0  0  0  0  0  0  0  0  0  0  0
   21.0840   12.2800   22.6070 H   0  0  0  0  0  0  0  0  0  0  0  0
   21.0349   12.6592   21.0134 H   0  0  0  0  0  0  0  0  0  0  0  0
   21.2913   13.0640   18.5549 H   0  0  0  0  0  0  0  0  0  0  0  0
   25.5326   13.1738   19.0776 H   0  0  0  0  0  0  0  0  0  0  0  0
   21.7970    9.6073   24.1959 H   0  0  0  0  0  0  0  0  0  0  0  0
   21.1055    9.0110   26.5150 H   0  0  0  0  0  0  0  0  0  0  0  0
   19.0250   12.2588   28.9693 H   0  0  0  0  0  0  0  0  0  0  0  0
   18.7841   14.0388   29.1497 H   0  0  0  0  0  0  0  0  0  0  0  0
  1  2  1  0
  2  3  1  0
  3  4  1  0
  3  5  2  0
  5  6  1  0
  6  7  1  1
  6  8  1  0
  8  9  2  0
  9 10  1  0
 10 11  1  0
 11 12  1  0
 12 13  2  0
 12 14  1  0
 14 15  2  0
 15 16  1  0
 16 17  2  0
 17 18  1  0
 17 19  1  0
 19 20  2  0
 10 21  2  0
 21 22  1  0
 22 23  2  0
 23 24  1  0
  6 25  1  0
 25 26  1  0
 26 27  2  0
 26 28  2  0
 26  2  1  0
 23  8  1  0
 20 14  1  0
  1 29  1  0
  1 30  1  0
  1 31  1  0
  4 32  1  0
  4 33  1  0
  7 34  1  0
  7 35  1  0
  7 36  1  0
  9 37  1  0
 11 38  1  0
 15 39  1  0
 16 40  1  0
 19 41  1  0
 21 42  1  0
 22 43  1  0
 25 44  1  0
 25 45  1  0
M  END
>  <meeko>  (2)
{"is_sidechain": false}

>  <source_group>  (2)
BACE1 canonical

>  <source_system>  (2)
BACE1_verubecestat

>  <source_run>  (2)
canonical_obabel_seed5519_ex32

>  <source_seed>  (2)
5519

>  <vina_pose_rank>  (2)
2

>  <vina_affinity_kcal_mol>  (2)
-8.5259999999999998

>  <vina_rmsd_to_crystal_angstrom>  (2)
7.3526999999999996

$$$$
BACE1_verubecestat__canonical_obabel_seed5519_ex32__pose03
     RDKit          3D

 45 47  0  0  0  0  0  0  0  0999 V2000
   27.8250   11.9310   22.7450 C   0  0  0  0  0  0  0  0  0  0  0  0
   27.0630   12.3520   21.5530 N   0  0  0  0  0  0  0  0  0  0  0  0
   26.5840   13.6680   21.3710 C   0  0  0  0  0  0  0  0  0  0  0  0
   27.0170   14.5530   22.3210 N   0  0  0  0  0  0  0  0  0  0  0  0
   25.8210   14.0290   20.3850 N   0  0  0  0  0  0  0  0  0  0  0  0
   25.2880   13.0580   19.4320 C   0  0  2  0  0  0  0  0  0  0  0  0
   24.8840   13.9320   18.2410 C   0  0  0  0  0  0  0  0  0  0  0  0
   24.0500   12.3530   19.9660 C   0  0  0  0  0  0  0  0  0  0  0  0
   23.5800   12.6030   21.2540 C   0  0  0  0  0  0  0  0  0  0  0  0
   22.4650   11.9780   21.7650 C   0  0  0  0  0  0  0  0  0  0  0  0
   22.0970   12.3210   23.0730 N   0  0  0  0  0  0  0  0  0  0  0  0
   22.3660   11.6370   24.2450 C   0  0  0  0  0  0  0  0  0  0  0  0
   22.8730   10.5250   24.3120 O   0  0  0  0  0  0  0  0  0  0  0  0
   22.0260   12.3630   25.4940 C   0  0  0  0  0  0  0  0  0  0  0  0
   20.7160   12.7360   25.7420 C   0  0  0  0  0  0  0  0  0  0  0  0
   20.4570   13.4120   26.9200 C   0  0  0  0  0  0  0  0  0  0  0  0
   21.4880   13.6870   27.7980 C   0  0  0  0  0  0  0  0  0  0  0  0
   21.2860   14.3490   28.9490 F   0  0  0  0  0  0  0  0  0  0  0  0
   22.7590   13.2800   27.4600 C   0  0  0  0  0  0  0  0  0  0  0  0
   23.0430   12.6270   26.3210 N   0  0  0  0  0  0  0  0  0  0  0  0
   21.7460   11.0780   20.9890 C   0  0  0  0  0  0  0  0  0  0  0  0
   22.2000   10.8160   19.7090 C   0  0  0  0  0  0  0  0  0  0  0  0
   23.3390   11.4260   19.2210 C   0  0  0  0  0  0  0  0  0  0  0  0
   23.7800   11.1280   17.9720 F   0  0  0  0  0  0  0  0  0  0  0  0
   26.3910   12.1400   18.9530 C   0  0  0  0  0  0  0  0  0  0  0  0
   27.0300   11.1740   20.2980 S   0  0  0  0  0  0  0  0  0  0  0  0
   28.4090   10.8620   19.9650 O   0  0  0  0  0  0  0  0  0  0  0  0
   26.0770   10.2120   20.7560 O   0  0  0  0  0  0  0  0  0  0  0  0
   27.2812   12.2314   23.6528 H   0  0  0  0  0  0  0  0  0  0  0  0
   27.9465   10.8378   22.7353 H   0  0  0  0  0  0  0  0  0  0  0  0
   28.8152   12.4101   22.7353 H   0  0  0  0  0  0  0  0  0  0  0  0
   26.7370   15.4960   22.2800 H   0  0  0  0  0  0  0  0  0  0  0  0
   27.6100   14.2480   23.0450 H   0  0  0  0  0  0  0  0  0  0  0  0
   24.4489   14.8733   18.6079 H   0  0  0  0  0  0  0  0  0  0  0  0
   25.7717   14.1521   17.6299 H   0  0  0  0  0  0  0  0  0  0  0  0
   24.1412   13.3984   17.6299 H   0  0  0  0  0  0  0  0  0  0  0  0
   24.1191   13.3253   21.8846 H   0  0  0  0  0  0  0  0  0  0  0  0
   21.5830   13.1550   23.1700 H   0  0  0  0  0  0  0  0  0  0  0  0
   19.9115   12.5033   25.0288 H   0  0  0  0  0  0  0  0  0  0  0  0
   19.4314   13.7305   27.1580 H   0  0  0  0  0  0  0  0  0  0  0  0
   23.5817   13.5002   28.1562 H   0  0  0  0  0  0  0  0  0  0  0  0
   20.8424   10.5881   21.3807 H   0  0  0  0  0  0  0  0  0  0  0  0
   21.6461   10.1119   19.0707 H   0  0  0  0  0  0  0  0  0  0  0  0
   25.9903   11.4654   18.1821 H   0  0  0  0  0  0  0  0  0  0  0  0
   27.2056   12.7517   18.5381 H   0  0  0  0  0  0  0  0  0  0  0  0
  1  2  1  0
  2  3  1  0
  3  4  1  0
  3  5  2  0
  5  6  1  0
  6  7  1  6
  6  8  1  0
  8  9  2  0
  9 10  1  0
 10 11  1  0
 11 12  1  0
 12 13  2  0
 12 14  1  0
 14 15  2  0
 15 16  1  0
 16 17  2  0
 17 18  1  0
 17 19  1  0
 19 20  2  0
 10 21  2  0
 21 22  1  0
 22 23  2  0
 23 24  1  0
  6 25  1  0
 25 26  1  0
 26 27  2  0
 26 28  2  0
 26  2  1  0
 23  8  1  0
 20 14  1  0
  1 29  1  0
  1 30  1  0
  1 31  1  0
  4 32  1  0
  4 33  1  0
  7 34  1  0
  7 35  1  0
  7 36  1  0
  9 37  1  0
 11 38  1  0
 15 39  1  0
 16 40  1  0
 19 41  1  0
 21 42  1  0
 22 43  1  0
 25 44  1  0
 25 45  1  0
M  END
>  <meeko>  (3)
{"is_sidechain": false}

>  <source_group>  (3)
BACE1 canonical

>  <source_system>  (3)
BACE1_verubecestat

>  <source_run>  (3)
canonical_obabel_seed5519_ex32

>  <source_seed>  (3)
5519

>  <vina_pose_rank>  (3)
3

>  <vina_affinity_kcal_mol>  (3)
-8.3729999999999993

>  <vina_rmsd_to_crystal_angstrom>  (3)
7.0759999999999996

$$$$
BACE1_verubecestat__canonical_obabel_seed5519_ex32__pose04
     RDKit          3D

 45 47  0  0  0  0  0  0  0  0999 V2000
   26.9430   11.4370   21.6230 C   0  0  0  0  0  0  0  0  0  0  0  0
   25.7190   11.8200   20.8930 N   0  0  0  0  0  0  0  0  0  0  0  0
   25.1600   13.1160   20.9550 C   0  0  0  0  0  0  0  0  0  0  0  0
   25.9340   14.0240   21.6260 N   0  0  0  0  0  0  0  0  0  0  0  0
   24.0280   13.4410   20.4090 N   0  0  0  0  0  0  0  0  0  0  0  0
   23.1660   12.4430   19.7780 C   0  0  2  0  0  0  0  0  0  0  0  0
   22.2470   13.2930   18.8960 C   0  0  0  0  0  0  0  0  0  0  0  0
   22.3180   11.6960   20.7950 C   0  0  0  0  0  0  0  0  0  0  0  0
   22.2930   12.0830   22.1340 C   0  0  0  0  0  0  0  0  0  0  0  0
   21.5370   11.4230   23.0770 C   0  0  0  0  0  0  0  0  0  0  0  0
   21.5990   11.9150   24.3880 N   0  0  0  0  0  0  0  0  0  0  0  0
   20.6830   12.7140   25.0480 C   0  0  0  0  0  0  0  0  0  0  0  0
   19.7040   13.2370   24.5320 O   0  0  0  0  0  0  0  0  0  0  0  0
   20.9290   12.8930   26.4990 C   0  0  0  0  0  0  0  0  0  0  0  0
   21.2510   11.8000   27.2860 C   0  0  0  0  0  0  0  0  0  0  0  0
   21.4680   12.0250   28.6340 C   0  0  0  0  0  0  0  0  0  0  0  0
   21.3630   13.3040   29.1440 C   0  0  0  0  0  0  0  0  0  0  0  0
   21.5560   13.5690   30.4480 F   0  0  0  0  0  0  0  0  0  0  0  0
   21.0320   14.3260   28.2830 C   0  0  0  0  0  0  0  0  0  0  0  0
   20.8090   14.1380   26.9720 N   0  0  0  0  0  0  0  0  0  0  0  0
   20.7420   10.3440   22.7120 C   0  0  0  0  0  0  0  0  0  0  0  0
   20.7570    9.9450   21.3880 C   0  0  0  0  0  0  0  0  0  0  0  0
   21.5450   10.5950   20.4590 C   0  0  0  0  0  0  0  0  0  0  0  0
   21.5640   10.1650   19.1710 F   0  0  0  0  0  0  0  0  0  0  0  0
   23.9790   11.5640   18.8530 C   0  0  0  0  0  0  0  0  0  0  0  0
   25.1810   10.6330   19.7680 S   0  0  0  0  0  0  0  0  0  0  0  0
   26.2820   10.3720   18.8590 O   0  0  0  0  0  0  0  0  0  0  0  0
   24.5640    9.6390   20.5900 O   0  0  0  0  0  0  0  0  0  0  0  0
   26.7575   11.4950   22.7057 H   0  0  0  0  0  0  0  0  0  0  0  0
   27.2237   10.4081   21.3537 H   0  0  0  0  0  0  0  0  0  0  0  0
   27.7601   12.1224   21.3537 H   0  0  0  0  0  0  0  0  0  0  0  0
   25.6290   14.9550   21.7220 H   0  0  0  0  0  0  0  0  0  0  0  0
   26.7970   13.7460   22.0120 H   0  0  0  0  0  0  0  0  0  0  0  0
   21.5884   13.9021   19.5326 H   0  0  0  0  0  0  0  0  0  0  0  0
   22.8561   13.9531   18.2609 H   0  0  0  0  0  0  0  0  0  0  0  0
   21.6364   12.6344   18.2609 H   0  0  0  0  0  0  0  0  0  0  0  0
   22.8984   12.9459   22.4484 H   0  0  0  0  0  0  0  0  0  0  0  0
   22.3970   11.6590   24.9050 H   0  0  0  0  0  0  0  0  0  0  0  0
   21.3313   10.7908   26.8557 H   0  0  0  0  0  0  0  0  0  0  0  0
   21.7237   11.1864   29.2983 H   0  0  0  0  0  0  0  0  0  0  0  0
   20.9461   15.3451   28.6881 H   0  0  0  0  0  0  0  0  0  0  0  0
   20.1192    9.8226   23.4538 H   0  0  0  0  0  0  0  0  0  0  0  0
   20.1320    9.0974   21.0703 H   0  0  0  0  0  0  0  0  0  0  0  0
   23.3052   10.8689   18.3307 H   0  0  0  0  0  0  0  0  0  0  0  0
   24.5041   12.2036   18.1283 H   0  0  0  0  0  0  0  0  0  0  0  0
  1  2  1  0
  2  3  1  0
  3  4  1  0
  3  5  2  0
  5  6  1  0
  6  7  1  6
  6  8  1  0
  8  9  2  0
  9 10  1  0
 10 11  1  0
 11 12  1  0
 12 13  2  0
 12 14  1  0
 14 15  2  0
 15 16  1  0
 16 17  2  0
 17 18  1  0
 17 19  1  0
 19 20  2  0
 10 21  2  0
 21 22  1  0
 22 23  2  0
 23 24  1  0
  6 25  1  0
 25 26  1  0
 26 27  2  0
 26 28  2  0
 26  2  1  0
 23  8  1  0
 20 14  1  0
  1 29  1  0
  1 30  1  0
  1 31  1  0
  4 32  1  0
  4 33  1  0
  7 34  1  0
  7 35  1  0
  7 36  1  0
  9 37  1  0
 11 38  1  0
 15 39  1  0
 16 40  1  0
 19 41  1  0
 21 42  1  0
 22 43  1  0
 25 44  1  0
 25 45  1  0
M  END
>  <meeko>  (4)
{"is_sidechain": false}

>  <source_group>  (4)
BACE1 canonical

>  <source_system>  (4)
BACE1_verubecestat

>  <source_run>  (4)
canonical_obabel_seed5519_ex32

>  <source_seed>  (4)
5519

>  <vina_pose_rank>  (4)
4

>  <vina_affinity_kcal_mol>  (4)
-8.3279999999999994

>  <vina_rmsd_to_crystal_angstrom>  (4)
7.3617999999999997

$$$$
BACE1_verubecestat__canonical_obabel_seed5519_ex32__pose05
     RDKit          3D

 45 47  0  0  0  0  0  0  0  0999 V2000
   27.0780   15.6370   19.5910 C   0  0  0  0  0  0  0  0  0  0  0  0
   26.7050   14.2120   19.6860 N   0  0  0  0  0  0  0  0  0  0  0  0
   26.3940   13.4200   18.5590 C   0  0  0  0  0  0  0  0  0  0  0  0
   26.6180   14.0460   17.3620 N   0  0  0  0  0  0  0  0  0  0  0  0
   25.9600   12.1990   18.6310 N   0  0  0  0  0  0  0  0  0  0  0  0
   25.6350   11.5750   19.9130 C   0  0  2  0  0  0  0  0  0  0  0  0
   25.6390   10.0810   19.5770 C   0  0  0  0  0  0  0  0  0  0  0  0
   24.2490   11.9650   20.4020 C   0  0  0  0  0  0  0  0  0  0  0  0
   23.8980   11.8390   21.7460 C   0  0  0  0  0  0  0  0  0  0  0  0
   22.6510   12.1810   22.2160 C   0  0  0  0  0  0  0  0  0  0  0  0
   22.4280   12.0090   23.5890 N   0  0  0  0  0  0  0  0  0  0  0  0
   23.1740   12.4990   24.6460 C   0  0  0  0  0  0  0  0  0  0  0  0
   24.2500   13.0730   24.5430 O   0  0  0  0  0  0  0  0  0  0  0  0
   22.5630   12.3230   25.9860 C   0  0  0  0  0  0  0  0  0  0  0  0
   21.4710   11.4880   26.1440 C   0  0  0  0  0  0  0  0  0  0  0  0
   20.9410   11.3620   27.4160 C   0  0  0  0  0  0  0  0  0  0  0  0
   21.5060   12.0550   28.4680 C   0  0  0  0  0  0  0  0  0  0  0  0
   21.0200   11.9720   29.7190 F   0  0  0  0  0  0  0  0  0  0  0  0
   22.5880   12.8670   28.2110 C   0  0  0  0  0  0  0  0  0  0  0  0
   23.1210   13.0130   26.9870 N   0  0  0  0  0  0  0  0  0  0  0  0
   21.6900   12.6940   21.3530 C   0  0  0  0  0  0  0  0  0  0  0  0
   22.0190   12.8220   20.0160 C   0  0  0  0  0  0  0  0  0  0  0  0
   23.2640   12.4450   19.5530 C   0  0  0  0  0  0  0  0  0  0  0  0
   23.5530   12.5540   18.2300 F   0  0  0  0  0  0  0  0  0  0  0  0
   26.7540   11.8090   20.9030 C   0  0  0  0  0  0  0  0  0  0  0  0
   26.9270   13.5400   21.2560 S   0  0  0  0  0  0  0  0  0  0  0  0
   28.3160   13.7520   21.6210 O   0  0  0  0  0  0  0  0  0  0  0  0
   25.8140   14.0400   22.0020 O   0  0  0  0  0  0  0  0  0  0  0  0
   27.1876   16.0555   20.6023 H   0  0  0  0  0  0  0  0  0  0  0  0
   28.0311   15.7313   19.0499 H   0  0  0  0  0  0  0  0  0  0  0  0
   26.2933   16.1861   19.0499 H   0  0  0  0  0  0  0  0  0  0  0  0
   26.4320   13.5740   16.5180 H   0  0  0  0  0  0  0  0  0  0  0  0
   26.9660   14.9670   17.3450 H   0  0  0  0  0  0  0  0  0  0  0  0
   25.6406    9.4957   20.5084 H   0  0  0  0  0  0  0  0  0  0  0  0
   24.7415    9.8346   18.9906 H   0  0  0  0  0  0  0  0  0  0  0  0
   26.5378    9.8395   18.9906 H   0  0  0  0  0  0  0  0  0  0  0  0
   24.6447   11.4525   22.4553 H   0  0  0  0  0  0  0  0  0  0  0  0
   21.6410   11.4700   23.8310 H   0  0  0  0  0  0  0  0  0  0  0  0
   21.0402   10.9445   25.2901 H   0  0  0  0  0  0  0  0  0  0  0  0
   20.0713   10.7110   27.5887 H   0  0  0  0  0  0  0  0  0  0  0  0
   23.0370   13.4223   29.0477 H   0  0  0  0  0  0  0  0  0  0  0  0
   20.6970   12.9895   21.7226 H   0  0  0  0  0  0  0  0  0  0  0  0
   21.2788   13.2297   19.3118 H   0  0  0  0  0  0  0  0  0  0  0  0
   26.5294   11.2709   21.8357 H   0  0  0  0  0  0  0  0  0  0  0  0
   27.6946   11.4410   20.4673 H   0  0  0  0  0  0  0  0  0  0  0  0
  1  2  1  0
  2  3  1  0
  3  4  1  0
  3  5  2  0
  5  6  1  0
  6  7  1  6
  6  8  1  0
  8  9  2  0
  9 10  1  0
 10 11  1  0
 11 12  1  0
 12 13  2  0
 12 14  1  0
 14 15  2  0
 15 16  1  0
 16 17  2  0
 17 18  1  0
 17 19  1  0
 19 20  2  0
 10 21  2  0
 21 22  1  0
 22 23  2  0
 23 24  1  0
  6 25  1  0
 25 26  1  0
 26 27  2  0
 26 28  2  0
 26  2  1  0
 23  8  1  0
 20 14  1  0
  1 29  1  0
  1 30  1  0
  1 31  1  0
  4 32  1  0
  4 33  1  0
  7 34  1  0
  7 35  1  0
  7 36  1  0
  9 37  1  0
 11 38  1  0
 15 39  1  0
 16 40  1  0
 19 41  1  0
 21 42  1  0
 22 43  1  0
 25 44  1  0
 25 45  1  0
M  END
>  <meeko>  (5)
{"is_sidechain": false}

>  <source_group>  (5)
BACE1 canonical

>  <source_system>  (5)
BACE1_verubecestat

>  <source_run>  (5)
canonical_obabel_seed5519_ex32

>  <source_seed>  (5)
5519

>  <vina_pose_rank>  (5)
5

>  <vina_affinity_kcal_mol>  (5)
-8.1690000000000005

>  <vina_rmsd_to_crystal_angstrom>  (5)
7.1097000000000001

$$$$
BACE1_verubecestat__canonical_obabel_seed5519_ex32__pose06
     RDKit          3D

 45 47  0  0  0  0  0  0  0  0999 V2000
   28.5120   13.7790   24.2100 C   0  0  0  0  0  0  0  0  0  0  0  0
   28.0720   13.8520   22.8030 N   0  0  0  0  0  0  0  0  0  0  0  0
   27.2030   14.8560   22.3190 C   0  0  0  0  0  0  0  0  0  0  0  0
   26.9280   15.8390   23.2310 N   0  0  0  0  0  0  0  0  0  0  0  0
   26.7210   14.8730   21.1150 N   0  0  0  0  0  0  0  0  0  0  0  0
   26.9440   13.7700   20.1820 C   0  0  2  0  0  0  0  0  0  0  0  0
   26.6370   14.4040   18.8220 C   0  0  0  0  0  0  0  0  0  0  0  0
   25.9790   12.6190   20.4170 C   0  0  0  0  0  0  0  0  0  0  0  0
   25.0730   12.6450   21.4750 C   0  0  0  0  0  0  0  0  0  0  0  0
   24.1900   11.6160   21.7140 C   0  0  0  0  0  0  0  0  0  0  0  0
   23.3300   11.7670   22.8090 N   0  0  0  0  0  0  0  0  0  0  0  0
   22.0590   12.3140   22.8330 C   0  0  0  0  0  0  0  0  0  0  0  0
   21.5210   12.8850   21.8930 O   0  0  0  0  0  0  0  0  0  0  0  0
   21.3180   12.1410   24.1060 C   0  0  0  0  0  0  0  0  0  0  0  0
   20.1090   11.4670   24.1150 C   0  0  0  0  0  0  0  0  0  0  0  0
   19.4600   11.3360   25.3300 C   0  0  0  0  0  0  0  0  0  0  0  0
   20.0260   11.8660   26.4730 C   0  0  0  0  0  0  0  0  0  0  0  0
   19.4280   11.7710   27.6730 F   0  0  0  0  0  0  0  0  0  0  0  0
   21.2300   12.5240   26.3620 C   0  0  0  0  0  0  0  0  0  0  0  0
   21.8800   12.6720   25.1960 N   0  0  0  0  0  0  0  0  0  0  0  0
   24.1590   10.5080   20.8760 C   0  0  0  0  0  0  0  0  0  0  0  0
   25.0540   10.4640   19.8220 C   0  0  0  0  0  0  0  0  0  0  0  0
   25.9560   11.4890   19.6150 C   0  0  0  0  0  0  0  0  0  0  0  0
   26.8430   11.4080   18.5900 F   0  0  0  0  0  0  0  0  0  0  0  0
   28.4080   13.3880   20.1710 C   0  0  0  0  0  0  0  0  0  0  0  0
   28.9050   12.7670   21.7580 S   0  0  0  0  0  0  0  0  0  0  0  0
   30.3230   13.0500   21.8880 O   0  0  0  0  0  0  0  0  0  0  0  0
   28.3100   11.4980   22.0380 O   0  0  0  0  0  0  0  0  0  0  0  0
   27.6460   13.9227   24.8729 H   0  0  0  0  0  0  0  0  0  0  0  0
   28.9619   12.7939   24.4028 H   0  0  0  0  0  0  0  0  0  0  0  0
   29.2559   14.5660   24.4028 H   0  0  0  0  0  0  0  0  0  0  0  0
   26.3320   16.5840   22.9870 H   0  0  0  0  0  0  0  0  0  0  0  0
   27.3270   15.8020   24.1310 H   0  0  0  0  0  0  0  0  0  0  0  0
   26.1622   15.3846   18.9734 H   0  0  0  0  0  0  0  0  0  0  0  0
   27.5725   14.5328   18.2579 H   0  0  0  0  0  0  0  0  0  0  0  0
   25.9558   13.7499   18.2579 H   0  0  0  0  0  0  0  0  0  0  0  0
   25.0627   13.5187   22.1432 H   0  0  0  0  0  0  0  0  0  0  0  0
   23.6740   11.4430   23.6730 H   0  0  0  0  0  0  0  0  0  0  0  0
   19.6804   11.0512   23.1912 H   0  0  0  0  0  0  0  0  0  0  0  0
   18.4951   10.8107   25.3855 H   0  0  0  0  0  0  0  0  0  0  0  0
   21.6810   12.9486   27.2710 H   0  0  0  0  0  0  0  0  0  0  0  0
   23.4437    9.6898   21.0457 H   0  0  0  0  0  0  0  0  0  0  0  0
   25.0471    9.6011   19.1398 H   0  0  0  0  0  0  0  0  0  0  0  0
   28.5727   12.6101   19.4109 H   0  0  0  0  0  0  0  0  0  0  0  0
   29.0054   14.2816   19.9375 H   0  0  0  0  0  0  0  0  0  0  0  0
  1  2  1  0
  2  3  1  0
  3  4  1  0
  3  5  2  0
  5  6  1  0
  6  7  1  6
  6  8  1  0
  8  9  2  0
  9 10  1  0
 10 11  1  0
 11 12  1  0
 12 13  2  0
 12 14  1  0
 14 15  2  0
 15 16  1  0
 16 17  2  0
 17 18  1  0
 17 19  1  0
 19 20  2  0
 10 21  2  0
 21 22  1  0
 22 23  2  0
 23 24  1  0
  6 25  1  0
 25 26  1  0
 26 27  2  0
 26 28  2  0
 26  2  1  0
 23  8  1  0
 20 14  1  0
  1 29  1  0
  1 30  1  0
  1 31  1  0
  4 32  1  0
  4 33  1  0
  7 34  1  0
  7 35  1  0
  7 36  1  0
  9 37  1  0
 11 38  1  0
 15 39  1  0
 16 40  1  0
 19 41  1  0
 21 42  1  0
 22 43  1  0
 25 44  1  0
 25 45  1  0
M  END
>  <meeko>  (6)
{"is_sidechain": false}

>  <source_group>  (6)
BACE1 canonical

>  <source_system>  (6)
BACE1_verubecestat

>  <source_run>  (6)
canonical_obabel_seed5519_ex32

>  <source_seed>  (6)
5519

>  <vina_pose_rank>  (6)
6

>  <vina_affinity_kcal_mol>  (6)
-7.9980000000000002

>  <vina_rmsd_to_crystal_angstrom>  (6)
7.5651999999999999

$$$$
BACE1_verubecestat__canonical_obabel_seed5519_ex32__pose07
     RDKit          3D

 45 47  0  0  0  0  0  0  0  0999 V2000
   16.6950   14.7700   25.0640 C   0  0  0  0  0  0  0  0  0  0  0  0
   17.7890   14.5480   26.0310 N   0  0  0  0  0  0  0  0  0  0  0  0
   18.9950   15.2820   26.0100 C   0  0  0  0  0  0  0  0  0  0  0  0
   19.0010   16.3170   25.1140 N   0  0  0  0  0  0  0  0  0  0  0  0
   20.0080   15.0280   26.7810 N   0  0  0  0  0  0  0  0  0  0  0  0
   20.0270   13.8640   27.6650 C   0  0  2  0  0  0  0  0  0  0  0  0
   21.1220   14.2190   28.6750 C   0  0  0  0  0  0  0  0  0  0  0  0
   20.4290   12.5950   26.9300 C   0  0  0  0  0  0  0  0  0  0  0  0
   20.9090   12.6430   25.6220 C   0  0  0  0  0  0  0  0  0  0  0  0
   21.2770   11.5110   24.9310 C   0  0  0  0  0  0  0  0  0  0  0  0
   21.7450   11.6970   23.6240 N   0  0  0  0  0  0  0  0  0  0  0  0
   21.2400   11.1690   22.4490 C   0  0  0  0  0  0  0  0  0  0  0  0
   20.3540   10.3270   22.3790 O   0  0  0  0  0  0  0  0  0  0  0  0
   21.8250   11.7210   21.2030 C   0  0  0  0  0  0  0  0  0  0  0  0
   21.8020   13.0860   20.9750 C   0  0  0  0  0  0  0  0  0  0  0  0
   22.3600   13.5470   19.7960 C   0  0  0  0  0  0  0  0  0  0  0  0
   22.9150   12.6520   18.9020 C   0  0  0  0  0  0  0  0  0  0  0  0
   23.4600   13.0510   17.7400 F   0  0  0  0  0  0  0  0  0  0  0  0
   22.8860   11.3120   19.2150 C   0  0  0  0  0  0  0  0  0  0  0  0
   22.3460   10.8340   20.3490 N   0  0  0  0  0  0  0  0  0  0  0  0
   21.2020   10.2620   25.5360 C   0  0  0  0  0  0  0  0  0  0  0  0
   20.7250   10.1960   26.8330 C   0  0  0  0  0  0  0  0  0  0  0  0
   20.3290   11.3370   27.5020 C   0  0  0  0  0  0  0  0  0  0  0  0
   19.8370   11.2410   28.7640 F   0  0  0  0  0  0  0  0  0  0  0  0
   18.7270   13.7750   28.4340 C   0  0  0  0  0  0  0  0  0  0  0  0
   17.3640   13.5030   27.3310 S   0  0  0  0  0  0  0  0  0  0  0  0
   16.1920   14.0710   27.9740 O   0  0  0  0  0  0  0  0  0  0  0  0
   17.4080   12.1980   26.7490 O   0  0  0  0  0  0  0  0  0  0  0  0
   15.7579   14.9602   25.6078 H   0  0  0  0  0  0  0  0  0  0  0  0
   16.9347   15.6378   24.4320 H   0  0  0  0  0  0  0  0  0  0  0  0
   16.5775   13.8774   24.4320 H   0  0  0  0  0  0  0  0  0  0  0  0
   19.7980   16.8880   25.0260 H   0  0  0  0  0  0  0  0  0  0  0  0
   18.2070   16.4910   24.5580 H   0  0  0  0  0  0  0  0  0  0  0  0
   20.7335   14.0931   29.6964 H   0  0  0  0  0  0  0  0  0  0  0  0
   21.9865   13.5551   28.5271 H   0  0  0  0  0  0  0  0  0  0  0  0
   21.4325   15.2638   28.5271 H   0  0  0  0  0  0  0  0  0  0  0  0
   20.9967   13.6202   25.1246 H   0  0  0  0  0  0  0  0  0  0  0  0
   22.5340   12.2790   23.5290 H   0  0  0  0  0  0  0  0  0  0  0  0
   21.3565   13.7786   21.7043 H   0  0  0  0  0  0  0  0  0  0  0  0
   22.3617   14.6237   19.5710 H   0  0  0  0  0  0  0  0  0  0  0  0
   23.3258   10.5982   18.5029 H   0  0  0  0  0  0  0  0  0  0  0  0
   21.5126    9.3532   24.9997 H   0  0  0  0  0  0  0  0  0  0  0  0
   20.6604    9.2210   27.3382 H   0  0  0  0  0  0  0  0  0  0  0  0
   18.7861   12.9402   29.1479 H   0  0  0  0  0  0  0  0  0  0  0  0
   18.5662   14.7230   28.9682 H   0  0  0  0  0  0  0  0  0  0  0  0
  1  2  1  0
  2  3  1  0
  3  4  1  0
  3  5  2  0
  5  6  1  0
  6  7  1  1
  6  8  1  0
  8  9  2  0
  9 10  1  0
 10 11  1  0
 11 12  1  0
 12 13  2  0
 12 14  1  0
 14 15  2  0
 15 16  1  0
 16 17  2  0
 17 18  1  0
 17 19  1  0
 19 20  2  0
 10 21  2  0
 21 22  1  0
 22 23  2  0
 23 24  1  0
  6 25  1  0
 25 26  1  0
 26 27  2  0
 26 28  2  0
 26  2  1  0
 23  8  1  0
 20 14  1  0
  1 29  1  0
  1 30  1  0
  1 31  1  0
  4 32  1  0
  4 33  1  0
  7 34  1  0
  7 35  1  0
  7 36  1  0
  9 37  1  0
 11 38  1  0
 15 39  1  0
 16 40  1  0
 19 41  1  0
 21 42  1  0
 22 43  1  0
 25 44  1  0
 25 45  1  0
M  END
>  <meeko>  (7)
{"is_sidechain": false}

>  <source_group>  (7)
BACE1 canonical

>  <source_system>  (7)
BACE1_verubecestat

>  <source_run>  (7)
canonical_obabel_seed5519_ex32

>  <source_seed>  (7)
5519

>  <vina_pose_rank>  (7)
7

>  <vina_affinity_kcal_mol>  (7)
-7.9429999999999996

>  <vina_rmsd_to_crystal_angstrom>  (7)
7.7229999999999999

$$$$
BACE1_verubecestat__canonical_obabel_seed5519_ex32__pose08
     RDKit          3D

 45 47  0  0  0  0  0  0  0  0999 V2000
   21.2130    9.5370   23.3370 C   0  0  0  0  0  0  0  0  0  0  0  0
   21.5950   10.5120   22.2970 N   0  0  0  0  0  0  0  0  0  0  0  0
   21.5970   10.2060   20.9180 C   0  0  0  0  0  0  0  0  0  0  0  0
   21.0690    8.9780   20.6210 N   0  0  0  0  0  0  0  0  0  0  0  0
   22.0320   11.0130   20.0000 N   0  0  0  0  0  0  0  0  0  0  0  0
   22.6790   12.2810   20.3360 C   0  0  2  0  0  0  0  0  0  0  0  0
   22.5840   13.0710   19.0280 C   0  0  0  0  0  0  0  0  0  0  0  0
   24.1460   12.0960   20.6910 C   0  0  0  0  0  0  0  0  0  0  0  0
   24.7570   12.8890   21.6620 C   0  0  0  0  0  0  0  0  0  0  0  0
   26.0830   12.7450   22.0020 C   0  0  0  0  0  0  0  0  0  0  0  0
   26.5730   13.6040   22.9950 N   0  0  0  0  0  0  0  0  0  0  0  0
   26.3250   13.5700   24.3550 C   0  0  0  0  0  0  0  0  0  0  0  0
   25.5120   12.8390   24.9050 O   0  0  0  0  0  0  0  0  0  0  0  0
   27.1580   14.4850   25.1730 C   0  0  0  0  0  0  0  0  0  0  0  0
   26.5960   15.6230   25.7260 C   0  0  0  0  0  0  0  0  0  0  0  0
   27.4190   16.4420   26.4780 C   0  0  0  0  0  0  0  0  0  0  0  0
   28.7470   16.1060   26.6550 C   0  0  0  0  0  0  0  0  0  0  0  0
   29.5870   16.8750   27.3700 F   0  0  0  0  0  0  0  0  0  0  0  0
   29.2160   14.9570   26.0610 C   0  0  0  0  0  0  0  0  0  0  0  0
   28.4420   14.1450   25.3210 N   0  0  0  0  0  0  0  0  0  0  0  0
   26.8640   11.7710   21.3920 C   0  0  0  0  0  0  0  0  0  0  0  0
   26.2750   10.9770   20.4240 C   0  0  0  0  0  0  0  0  0  0  0  0
   24.9520   11.1540   20.0700 C   0  0  0  0  0  0  0  0  0  0  0  0
   24.4060   10.3810   19.0970 F   0  0  0  0  0  0  0  0  0  0  0  0
   21.8590   13.0260   21.3650 C   0  0  0  0  0  0  0  0  0  0  0  0
   21.7890   12.1170   22.8880 S   0  0  0  0  0  0  0  0  0  0  0  0
   20.5450   12.4900   23.5360 O   0  0  0  0  0  0  0  0  0  0  0  0
   23.0590   12.0890   23.5440 O   0  0  0  0  0  0  0  0  0  0  0  0
   21.3847    9.9752   24.3312 H   0  0  0  0  0  0  0  0  0  0  0  0
   20.1485    9.2822   23.2275 H   0  0  0  0  0  0  0  0  0  0  0  0
   21.8210    8.6269   23.2275 H   0  0  0  0  0  0  0  0  0  0  0  0
   21.0270    8.6740   19.6850 H   0  0  0  0  0  0  0  0  0  0  0  0
   20.7320    8.3990   21.3420 H   0  0  0  0  0  0  0  0  0  0  0  0
   22.4555   14.1399   19.2537 H   0  0  0  0  0  0  0  0  0  0  0  0
   23.5059   12.9276   18.4452 H   0  0  0  0  0  0  0  0  0  0  0  0
   21.7224   12.7131   18.4452 H   0  0  0  0  0  0  0  0  0  0  0  0
   24.1582   13.6565   22.1742 H   0  0  0  0  0  0  0  0  0  0  0  0
   27.1700   14.3230   22.6840 H   0  0  0  0  0  0  0  0  0  0  0  0
   25.5343   15.8669   25.5731 H   0  0  0  0  0  0  0  0  0  0  0  0
   27.0168   17.3587   26.9340 H   0  0  0  0  0  0  0  0  0  0  0  0
   30.2744   14.6905   26.1983 H   0  0  0  0  0  0  0  0  0  0  0  0
   27.9195   11.6352   21.6705 H   0  0  0  0  0  0  0  0  0  0  0  0
   26.8687   10.1940   19.9296 H   0  0  0  0  0  0  0  0  0  0  0  0
   22.3186   14.0079   21.5512 H   0  0  0  0  0  0  0  0  0  0  0  0
   20.8362   13.1506   20.9798 H   0  0  0  0  0  0  0  0  0  0  0  0
  1  2  1  0
  2  3  1  0
  3  4  1  0
  3  5  2  0
  5  6  1  0
  6  7  1  6
  6  8  1  0
  8  9  2  0
  9 10  1  0
 10 11  1  0
 11 12  1  0
 12 13  2  0
 12 14  1  0
 14 15  2  0
 15 16  1  0
 16 17  2  0
 17 18  1  0
 17 19  1  0
 19 20  2  0
 10 21  2  0
 21 22  1  0
 22 23  2  0
 23 24  1  0
  6 25  1  0
 25 26  1  0
 26 27  2  0
 26 28  2  0
 26  2  1  0
 23  8  1  0
 20 14  1  0
  1 29  1  0
  1 30  1  0
  1 31  1  0
  4 32  1  0
  4 33  1  0
  7 34  1  0
  7 35  1  0
  7 36  1  0
  9 37  1  0
 11 38  1  0
 15 39  1  0
 16 40  1  0
 19 41  1  0
 21 42  1  0
 22 43  1  0
 25 44  1  0
 25 45  1  0
M  END
>  <meeko>  (8)
{"is_sidechain": false}

>  <source_group>  (8)
BACE1 canonical

>  <source_system>  (8)
BACE1_verubecestat

>  <source_run>  (8)
canonical_obabel_seed5519_ex32

>  <source_seed>  (8)
5519

>  <vina_pose_rank>  (8)
8

>  <vina_affinity_kcal_mol>  (8)
-7.9100000000000001

>  <vina_rmsd_to_crystal_angstrom>  (8)
4.7866

$$$$
BACE1_verubecestat__canonical_obabel_seed5519_ex32__pose09
     RDKit          3D

 45 47  0  0  0  0  0  0  0  0999 V2000
   21.2000   12.3550   29.3150 C   0  0  0  0  0  0  0  0  0  0  0  0
   20.3170   12.8220   28.2280 N   0  0  0  0  0  0  0  0  0  0  0  0
   18.9280   12.5650   28.2000 C   0  0  0  0  0  0  0  0  0  0  0  0
   18.4480   11.9790   29.3400 N   0  0  0  0  0  0  0  0  0  0  0  0
   18.1570   12.8730   27.2030 N   0  0  0  0  0  0  0  0  0  0  0  0
   18.6950   13.4110   25.9540 C   0  0  2  0  0  0  0  0  0  0  0  0
   17.4660   14.0470   25.2980 C   0  0  0  0  0  0  0  0  0  0  0  0
   19.2270   12.3160   25.0430 C   0  0  0  0  0  0  0  0  0  0  0  0
   20.1720   12.5960   24.0570 C   0  0  0  0  0  0  0  0  0  0  0  0
   20.6680   11.6260   23.2160 C   0  0  0  0  0  0  0  0  0  0  0  0
   21.6160   12.0390   22.2710 N   0  0  0  0  0  0  0  0  0  0  0  0
   21.7810   11.5930   20.9720 C   0  0  0  0  0  0  0  0  0  0  0  0
   21.1880   10.6460   20.4710 O   0  0  0  0  0  0  0  0  0  0  0  0
   22.7370   12.3750   20.1500 C   0  0  0  0  0  0  0  0  0  0  0  0
   22.3190   12.9460   18.9610 C   0  0  0  0  0  0  0  0  0  0  0  0
   23.2530   13.6630   18.2340 C   0  0  0  0  0  0  0  0  0  0  0  0
   24.5450   13.7890   18.7070 C   0  0  0  0  0  0  0  0  0  0  0  0
   25.4880   14.4670   18.0310 F   0  0  0  0  0  0  0  0  0  0  0  0
   24.8660   13.1790   19.8980 C   0  0  0  0  0  0  0  0  0  0  0  0
   23.9840   12.4720   20.6230 N   0  0  0  0  0  0  0  0  0  0  0  0
   20.2510   10.3060   23.3410 C   0  0  0  0  0  0  0  0  0  0  0  0
   19.3110   10.0110   24.3120 C   0  0  0  0  0  0  0  0  0  0  0  0
   18.7970   11.0000   25.1270 C   0  0  0  0  0  0  0  0  0  0  0  0
   17.8540   10.6890   26.0530 F   0  0  0  0  0  0  0  0  0  0  0  0
   19.6700   14.5300   26.2480 C   0  0  0  0  0  0  0  0  0  0  0  0
   21.0770   13.9170   27.1390 S   0  0  0  0  0  0  0  0  0  0  0  0
   21.5830   15.0260   27.9270 O   0  0  0  0  0  0  0  0  0  0  0  0
   21.8930   13.0740   26.3210 O   0  0  0  0  0  0  0  0  0  0  0  0
   20.7443   12.5960   30.2867 H   0  0  0  0  0  0  0  0  0  0  0  0
   21.3369   11.2666   29.2341 H   0  0  0  0  0  0  0  0  0  0  0  0
   22.1767   12.8544   29.2341 H   0  0  0  0  0  0  0  0  0  0  0  0
   17.4910   11.7600   29.4160 H   0  0  0  0  0  0  0  0  0  0  0  0
   19.0600   11.7760   30.0850 H   0  0  0  0  0  0  0  0  0  0  0  0
   16.7772   14.4034   26.0781 H   0  0  0  0  0  0  0  0  0  0  0  0
   17.7818   14.8949   24.6724 H   0  0  0  0  0  0  0  0  0  0  0  0
   16.9562   13.2995   24.6724 H   0  0  0  0  0  0  0  0  0  0  0  0
   20.5341   13.6289   23.9473 H   0  0  0  0  0  0  0  0  0  0  0  0
   22.2430   12.7370   22.5690 H   0  0  0  0  0  0  0  0  0  0  0  0
   21.2835   12.8342   18.6071 H   0  0  0  0  0  0  0  0  0  0  0  0
   22.9672   14.1319   17.2809 H   0  0  0  0  0  0  0  0  0  0  0  0
   25.8951   13.2752   20.2745 H   0  0  0  0  0  0  0  0  0  0  0  0
   20.6563    9.5195   22.6874 H   0  0  0  0  0  0  0  0  0  0  0  0
   18.9680    8.9733   24.4367 H   0  0  0  0  0  0  0  0  0  0  0  0
   20.0080   14.9731   25.2996 H   0  0  0  0  0  0  0  0  0  0  0  0
   19.1637   15.2879   26.8639 H   0  0  0  0  0  0  0  0  0  0  0  0
  1  2  1  0
  2  3  1  0
  3  4  1  0
  3  5  2  0
  5  6  1  0
  6  7  1  6
  6  8  1  0
  8  9  2  0
  9 10  1  0
 10 11  1  0
 11 12  1  0
 12 13  2  0
 12 14  1  0
 14 15  2  0
 15 16  1  0
 16 17  2  0
 17 18  1  0
 17 19  1  0
 19 20  2  0
 10 21  2  0
 21 22  1  0
 22 23  2  0
 23 24  1  0
  6 25  1  0
 25 26  1  0
 26 27  2  0
 26 28  2  0
 26  2  1  0
 23  8  1  0
 20 14  1  0
  1 29  1  0
  1 30  1  0
  1 31  1  0
  4 32  1  0
  4 33  1  0
  7 34  1  0
  7 35  1  0
  7 36  1  0
  9 37  1  0
 11 38  1  0
 15 39  1  0
 16 40  1  0
 19 41  1  0
 21 42  1  0
 22 43  1  0
 25 44  1  0
 25 45  1  0
M  END
>  <meeko>  (9)
{"is_sidechain": false}

>  <source_group>  (9)
BACE1 canonical

>  <source_system>  (9)
BACE1_verubecestat

>  <source_run>  (9)
canonical_obabel_seed5519_ex32

>  <source_seed>  (9)
5519

>  <vina_pose_rank>  (9)
9

>  <vina_affinity_kcal_mol>  (9)
-7.9059999999999997

>  <vina_rmsd_to_crystal_angstrom>  (9)
6.6429

$$$$
BACE1_verubecestat__canonical_obabel_seed5519_ex32__pose10
     RDKit          3D

 45 47  0  0  0  0  0  0  0  0999 V2000
   21.9680   11.3710   19.9020 C   0  0  0  0  0  0  0  0  0  0  0  0
   23.4330   11.2190   19.9890 N   0  0  0  0  0  0  0  0  0  0  0  0
   24.0580   10.1420   20.6560 C   0  0  0  0  0  0  0  0  0  0  0  0
   23.1880    9.1730   21.0820 N   0  0  0  0  0  0  0  0  0  0  0  0
   25.3390   10.0490   20.8360 N   0  0  0  0  0  0  0  0  0  0  0  0
   26.2470   11.1320   20.4620 C   0  0  2  0  0  0  0  0  0  0  0  0
   27.6080   10.4330   20.3990 C   0  0  0  0  0  0  0  0  0  0  0  0
   26.3040   12.2210   21.5220 C   0  0  0  0  0  0  0  0  0  0  0  0
   25.4330   12.2120   22.6110 C   0  0  0  0  0  0  0  0  0  0  0  0
   25.4600   13.1860   23.5830 C   0  0  0  0  0  0  0  0  0  0  0  0
   24.5330   13.0580   24.6260 N   0  0  0  0  0  0  0  0  0  0  0  0
   23.2620   12.5110   24.5810 C   0  0  0  0  0  0  0  0  0  0  0  0
   22.6840   12.1570   23.5620 O   0  0  0  0  0  0  0  0  0  0  0  0
   22.6050   12.3260   25.8970 C   0  0  0  0  0  0  0  0  0  0  0  0
   21.4990   11.5020   26.0080 C   0  0  0  0  0  0  0  0  0  0  0  0
   20.9240   11.3680   27.2600 C   0  0  0  0  0  0  0  0  0  0  0  0
   21.4610   12.0430   28.3390 C   0  0  0  0  0  0  0  0  0  0  0  0
   20.9320   11.9510   29.5710 F   0  0  0  0  0  0  0  0  0  0  0  0
   22.5600   12.8440   28.1280 C   0  0  0  0  0  0  0  0  0  0  0  0
   23.1360   12.9980   26.9240 N   0  0  0  0  0  0  0  0  0  0  0  0
   26.3890   14.2170   23.5210 C   0  0  0  0  0  0  0  0  0  0  0  0
   27.2580   14.2440   22.4450 C   0  0  0  0  0  0  0  0  0  0  0  0
   27.1990   13.2780   21.4600 C   0  0  0  0  0  0  0  0  0  0  0  0
   28.0440   13.3440   20.4000 F   0  0  0  0  0  0  0  0  0  0  0  0
   25.9320   11.6150   19.0640 C   0  0  0  0  0  0  0  0  0  0  0  0
   24.3060   12.3230   18.9970 S   0  0  0  0  0  0  0  0  0  0  0  0
   23.8320   12.1440   17.6360 O   0  0  0  0  0  0  0  0  0  0  0  0
   24.2370   13.5570   19.7150 O   0  0  0  0  0  0  0  0  0  0  0  0
   21.5431   11.4151   20.9157 H   0  0  0  0  0  0  0  0  0  0  0  0
   21.7270   12.2990   19.3627 H   0  0  0  0  0  0  0  0  0  0  0  0
   21.5416   10.5123   19.3627 H   0  0  0  0  0  0  0  0  0  0  0  0
   23.5280    8.3810   21.5580 H   0  0  0  0  0  0  0  0  0  0  0  0
   22.2230    9.2690   20.9120 H   0  0  0  0  0  0  0  0  0  0  0  0
   27.9718   10.2461   21.4201 H   0  0  0  0  0  0  0  0  0  0  0  0
   27.5046    9.4764   19.8658 H   0  0  0  0  0  0  0  0  0  0  0  0
   28.3252   11.0743   19.8658 H   0  0  0  0  0  0  0  0  0  0  0  0
   24.6984   11.3977   22.6962 H   0  0  0  0  0  0  0  0  0  0  0  0
   24.8220   13.4000   25.5020 H   0  0  0  0  0  0  0  0  0  0  0  0
   21.0918   10.9730   25.1337 H   0  0  0  0  0  0  0  0  0  0  0  0
   20.0415   10.7255   27.3954 H   0  0  0  0  0  0  0  0  0  0  0  0
   22.9872   13.3839   28.9859 H   0  0  0  0  0  0  0  0  0  0  0  0
   26.4323   14.9886   24.3038 H   0  0  0  0  0  0  0  0  0  0  0  0
   28.0068   15.0466   22.3730 H   0  0  0  0  0  0  0  0  0  0  0  0
   26.6697   12.3761   18.7700 H   0  0  0  0  0  0  0  0  0  0  0  0
   25.9734   10.7579   18.3758 H   0  0  0  0  0  0  0  0  0  0  0  0
  1  2  1  0
  2  3  1  0
  3  4  1  0
  3  5  2  0
  5  6  1  0
  6  7  1  6
  6  8  1  0
  8  9  2  0
  9 10  1  0
 10 11  1  0
 11 12  1  0
 12 13  2  0
 12 14  1  0
 14 15  2  0
 15 16  1  0
 16 17  2  0
 17 18  1  0
 17 19  1  0
 19 20  2  0
 10 21  2  0
 21 22  1  0
 22 23  2  0
 23 24  1  0
  6 25  1  0
 25 26  1  0
 26 27  2  0
 26 28  2  0
 26  2  1  0
 23  8  1  0
 20 14  1  0
  1 29  1  0
  1 30  1  0
  1 31  1  0
  4 32  1  0
  4 33  1  0
  7 34  1  0
  7 35  1  0
  7 36  1  0
  9 37  1  0
 11 38  1  0
 15 39  1  0
 16 40  1  0
 19 41  1  0
 21 42  1  0
 22 43  1  0
 25 44  1  0
 25 45  1  0
M  END
>  <meeko>  (10)
{"is_sidechain": false}

>  <source_group>  (10)
BACE1 canonical

>  <source_system>  (10)
BACE1_verubecestat

>  <source_run>  (10)
canonical_obabel_seed5519_ex32

>  <source_seed>  (10)
5519

>  <vina_pose_rank>  (10)
10

>  <vina_affinity_kcal_mol>  (10)
-7.5069999999999997

>  <vina_rmsd_to_crystal_angstrom>  (10)
6.8680000000000003

$$$$
BACE1_verubecestat__canonical_obabel_seed5519_ex32__pose11
     RDKit          3D

 45 47  0  0  0  0  0  0  0  0999 V2000
   23.7690   13.8140   18.0820 C   0  0  0  0  0  0  0  0  0  0  0  0
   24.8680   13.1050   18.7670 N   0  0  0  0  0  0  0  0  0  0  0  0
   24.8320   11.7220   19.0530 C   0  0  0  0  0  0  0  0  0  0  0  0
   23.7610   11.0690   18.5060 N   0  0  0  0  0  0  0  0  0  0  0  0
   25.7380   11.1060   19.7480 N   0  0  0  0  0  0  0  0  0  0  0  0
   26.8250   11.8280   20.4060 C   0  0  2  0  0  0  0  0  0  0  0  0
   27.8560   10.7280   20.6730 C   0  0  0  0  0  0  0  0  0  0  0  0
   26.3910   12.4260   21.7360 C   0  0  0  0  0  0  0  0  0  0  0  0
   25.0730   12.3160   22.1780 C   0  0  0  0  0  0  0  0  0  0  0  0
   24.6520   12.8490   23.3750 C   0  0  0  0  0  0  0  0  0  0  0  0
   23.3020   12.6660   23.7030 N   0  0  0  0  0  0  0  0  0  0  0  0
   22.7560   11.8030   24.6360 C   0  0  0  0  0  0  0  0  0  0  0  0
   23.3770   10.9460   25.2510 O   0  0  0  0  0  0  0  0  0  0  0  0
   21.3090   11.9920   24.9040 C   0  0  0  0  0  0  0  0  0  0  0  0
   20.4130   10.9810   24.6030 C   0  0  0  0  0  0  0  0  0  0  0  0
   19.0750   11.2120   24.8720 C   0  0  0  0  0  0  0  0  0  0  0  0
   18.6820   12.4160   25.4220 C   0  0  0  0  0  0  0  0  0  0  0  0
   17.3940   12.6890   25.6910 F   0  0  0  0  0  0  0  0  0  0  0  0
   19.6470   13.3630   25.6800 C   0  0  0  0  0  0  0  0  0  0  0  0
   20.9520   13.1700   25.4250 N   0  0  0  0  0  0  0  0  0  0  0  0
   25.5490   13.5070   24.2070 C   0  0  0  0  0  0  0  0  0  0  0  0
   26.8600   13.6290   23.7820 C   0  0  0  0  0  0  0  0  0  0  0  0
   27.2610   13.1170   22.5640 C   0  0  0  0  0  0  0  0  0  0  0  0
   28.5470   13.2750   22.1570 F   0  0  0  0  0  0  0  0  0  0  0  0
   27.4580   12.8050   19.4410 C   0  0  0  0  0  0  0  0  0  0  0  0
   26.2920   14.0530   18.9560 S   0  0  0  0  0  0  0  0  0  0  0  0
   26.6900   14.5000   17.6340 O   0  0  0  0  0  0  0  0  0  0  0  0
   25.9780   14.9300   20.0400 O   0  0  0  0  0  0  0  0  0  0  0  0
   23.0917   14.2509   18.8306 H   0  0  0  0  0  0  0  0  0  0  0  0
   24.1851   14.6144   17.4525 H   0  0  0  0  0  0  0  0  0  0  0  0
   23.2113   13.1049   17.4525 H   0  0  0  0  0  0  0  0  0  0  0  0
   23.6490   10.1010   18.6490 H   0  0  0  0  0  0  0  0  0  0  0  0
   23.1030   11.5670   17.9680 H   0  0  0  0  0  0  0  0  0  0  0  0
   27.9792   10.5965   21.7581 H   0  0  0  0  0  0  0  0  0  0  0  0
   27.5094    9.7844   20.2263 H   0  0  0  0  0  0  0  0  0  0  0  0
   28.8200   11.0128   20.2263 H   0  0  0  0  0  0  0  0  0  0  0  0
   24.3444   11.7847   21.5480 H   0  0  0  0  0  0  0  0  0  0  0  0
   22.6600   13.2240   23.2060 H   0  0  0  0  0  0  0  0  0  0  0  0
   20.7514   10.0297   24.1664 H   0  0  0  0  0  0  0  0  0  0  0  0
   18.3262   10.4379   24.6480 H   0  0  0  0  0  0  0  0  0  0  0  0
   19.3349   14.3236   26.1157 H   0  0  0  0  0  0  0  0  0  0  0  0
   25.2266   13.9187   25.1748 H   0  0  0  0  0  0  0  0  0  0  0  0
   27.5928   14.1408   24.4231 H   0  0  0  0  0  0  0  0  0  0  0  0
   28.3199   13.2855   19.9271 H   0  0  0  0  0  0  0  0  0  0  0  0
   27.7823   12.2565   18.5443 H   0  0  0  0  0  0  0  0  0  0  0  0
  1  2  1  0
  2  3  1  0
  3  4  1  0
  3  5  2  0
  5  6  1  0
  6  7  1  1
  6  8  1  0
  8  9  2  0
  9 10  1  0
 10 11  1  0
 11 12  1  0
 12 13  2  0
 12 14  1  0
 14 15  2  0
 15 16  1  0
 16 17  2  0
 17 18  1  0
 17 19  1  0
 19 20  2  0
 10 21  2  0
 21 22  1  0
 22 23  2  0
 23 24  1  0
  6 25  1  0
 25 26  1  0
 26 27  2  0
 26 28  2  0
 26  2  1  0
 23  8  1  0
 20 14  1  0
  1 29  1  0
  1 30  1  0
  1 31  1  0
  4 32  1  0
  4 33  1  0
  7 34  1  0
  7 35  1  0
  7 36  1  0
  9 37  1  0
 11 38  1  0
 15 39  1  0
 16 40  1  0
 19 41  1  0
 21 42  1  0
 22 43  1  0
 25 44  1  0
 25 45  1  0
M  END
>  <meeko>  (11)
{"is_sidechain": false}

>  <source_group>  (11)
BACE1 canonical

>  <source_system>  (11)
BACE1_verubecestat

>  <source_run>  (11)
canonical_obabel_seed5519_ex32

>  <source_seed>  (11)
5519

>  <vina_pose_rank>  (11)
11

>  <vina_affinity_kcal_mol>  (11)
-7.4900000000000002

>  <vina_rmsd_to_crystal_angstrom>  (11)
7.8971999999999998

$$$$
BACE1_verubecestat__canonical_obabel_seed5519_ex32__pose12
     RDKit          3D

 45 47  0  0  0  0  0  0  0  0999 V2000
   14.7190   13.8210   24.9290 C   0  0  0  0  0  0  0  0  0  0  0  0
   15.7500   14.5800   25.6640 N   0  0  0  0  0  0  0  0  0  0  0  0
   16.5870   15.5370   25.0490 C   0  0  0  0  0  0  0  0  0  0  0  0
   16.2570   15.8090   23.7490 N   0  0  0  0  0  0  0  0  0  0  0  0
   17.5680   16.1330   25.6540 N   0  0  0  0  0  0  0  0  0  0  0  0
   17.9710   15.7650   27.0100 C   0  0  2  0  0  0  0  0  0  0  0  0
   18.7830   16.9800   27.4680 C   0  0  0  0  0  0  0  0  0  0  0  0
   18.8700   14.5390   27.0270 C   0  0  0  0  0  0  0  0  0  0  0  0
   19.4540   14.0590   25.8550 C   0  0  0  0  0  0  0  0  0  0  0  0
   20.2700   12.9510   25.8400 C   0  0  0  0  0  0  0  0  0  0  0  0
   20.7940   12.5740   24.5970 N   0  0  0  0  0  0  0  0  0  0  0  0
   20.3970   11.5320   23.7780 C   0  0  0  0  0  0  0  0  0  0  0  0
   19.5820   10.6710   24.0810 O   0  0  0  0  0  0  0  0  0  0  0  0
   21.0070   11.5200   22.4270 C   0  0  0  0  0  0  0  0  0  0  0  0
   21.6410   12.6520   21.9440 C   0  0  0  0  0  0  0  0  0  0  0  0
   22.1910   12.5850   20.6760 C   0  0  0  0  0  0  0  0  0  0  0  0
   22.0970   11.4160   19.9460 C   0  0  0  0  0  0  0  0  0  0  0  0
   22.6070   11.3070   18.7080 F   0  0  0  0  0  0  0  0  0  0  0  0
   21.4410   10.3450   20.5090 C   0  0  0  0  0  0  0  0  0  0  0  0
   20.8920   10.3810   21.7350 N   0  0  0  0  0  0  0  0  0  0  0  0
   20.5610   12.2750   27.0180 C   0  0  0  0  0  0  0  0  0  0  0  0
   19.9880   12.7360   28.1910 C   0  0  0  0  0  0  0  0  0  0  0  0
   19.1450   13.8300   28.1860 C   0  0  0  0  0  0  0  0  0  0  0  0
   18.5720   14.2440   29.3450 F   0  0  0  0  0  0  0  0  0  0  0  0
   16.7560   15.6800   27.9080 C   0  0  0  0  0  0  0  0  0  0  0  0
   15.6710   14.3820   27.3730 S   0  0  0  0  0  0  0  0  0  0  0  0
   14.3330   14.7620   27.7880 O   0  0  0  0  0  0  0  0  0  0  0  0
   16.2440   13.0910   27.5940 O   0  0  0  0  0  0  0  0  0  0  0  0
   14.0471   13.3264   25.6459 H   0  0  0  0  0  0  0  0  0  0  0  0
   14.1384   14.5088   24.2967 H   0  0  0  0  0  0  0  0  0  0  0  0
   15.2033   13.0623   24.2967 H   0  0  0  0  0  0  0  0  0  0  0  0
   16.7820   16.4650   23.2350 H   0  0  0  0  0  0  0  0  0  0  0  0
   15.4940   15.3510   23.3280 H   0  0  0  0  0  0  0  0  0  0  0  0
   18.8051   17.0130   28.5673 H   0  0  0  0  0  0  0  0  0  0  0  0
   19.8103   16.9008   27.0828 H   0  0  0  0  0  0  0  0  0  0  0  0
   18.3169   17.8989   27.0828 H   0  0  0  0  0  0  0  0  0  0  0  0
   19.2554   14.5846   24.9093 H   0  0  0  0  0  0  0  0  0  0  0  0
   21.5410   13.1220   24.2620 H   0  0  0  0  0  0  0  0  0  0  0  0
   21.7051   13.5705   22.5458 H   0  0  0  0  0  0  0  0  0  0  0  0
   22.7021   13.4610   20.2501 H   0  0  0  0  0  0  0  0  0  0  0  0
   21.3623    9.4147   19.9273 H   0  0  0  0  0  0  0  0  0  0  0  0
   21.2269   11.3994   27.0189 H   0  0  0  0  0  0  0  0  0  0  0  0
   20.2071   12.2241   29.1397 H   0  0  0  0  0  0  0  0  0  0  0  0
   17.0821   15.4763   28.9386 H   0  0  0  0  0  0  0  0  0  0  0  0
   16.2139   16.6360   27.8614 H   0  0  0  0  0  0  0  0  0  0  0  0
  1  2  1  0
  2  3  1  0
  3  4  1  0
  3  5  2  0
  5  6  1  0
  6  7  1  1
  6  8  1  0
  8  9  2  0
  9 10  1  0
 10 11  1  0
 11 12  1  0
 12 13  2  0
 12 14  1  0
 14 15  2  0
 15 16  1  0
 16 17  2  0
 17 18  1  0
 17 19  1  0
 19 20  2  0
 10 21  2  0
 21 22  1  0
 22 23  2  0
 23 24  1  0
  6 25  1  0
 25 26  1  0
 26 27  2  0
 26 28  2  0
 26  2  1  0
 23  8  1  0
 20 14  1  0
  1 29  1  0
  1 30  1  0
  1 31  1  0
  4 32  1  0
  4 33  1  0
  7 34  1  0
  7 35  1  0
  7 36  1  0
  9 37  1  0
 11 38  1  0
 15 39  1  0
 16 40  1  0
 19 41  1  0
 21 42  1  0
 22 43  1  0
 25 44  1  0
 25 45  1  0
M  END
>  <meeko>  (12)
{"is_sidechain": false}

>  <source_group>  (12)
BACE1 canonical

>  <source_system>  (12)
BACE1_verubecestat

>  <source_run>  (12)
canonical_obabel_seed5519_ex32

>  <source_seed>  (12)
5519

>  <vina_pose_rank>  (12)
12

>  <vina_affinity_kcal_mol>  (12)
-7.4660000000000002

>  <vina_rmsd_to_crystal_angstrom>  (12)
8.7924000000000007

$$$$
BACE1_verubecestat__canonical_obabel_seed5519_ex32__pose13
     RDKit          3D

 45 47  0  0  0  0  0  0  0  0999 V2000
   28.3490   14.8320   25.8170 C   0  0  0  0  0  0  0  0  0  0  0  0
   28.2150   15.1250   24.3760 N   0  0  0  0  0  0  0  0  0  0  0  0
   27.2720   16.0420   23.8610 C   0  0  0  0  0  0  0  0  0  0  0  0
   26.5990   16.7460   24.8240 N   0  0  0  0  0  0  0  0  0  0  0  0
   27.0660   16.2310   22.5940 N   0  0  0  0  0  0  0  0  0  0  0  0
   27.7200   15.4070   21.5790 C   0  0  2  0  0  0  0  0  0  0  0  0
   27.5780   16.2520   20.3090 C   0  0  0  0  0  0  0  0  0  0  0  0
   27.0030   14.0830   21.3700 C   0  0  0  0  0  0  0  0  0  0  0  0
   25.8600   13.7590   22.1000 C   0  0  0  0  0  0  0  0  0  0  0  0
   25.1930   12.5670   21.9340 C   0  0  0  0  0  0  0  0  0  0  0  0
   24.0570   12.3670   22.7280 N   0  0  0  0  0  0  0  0  0  0  0  0
   22.7270   12.5030   22.3720 C   0  0  0  0  0  0  0  0  0  0  0  0
   22.3250   12.9560   21.3080 O   0  0  0  0  0  0  0  0  0  0  0  0
   21.7490   12.0160   23.3760 C   0  0  0  0  0  0  0  0  0  0  0  0
   20.7780   11.1020   23.0070 C   0  0  0  0  0  0  0  0  0  0  0  0
   19.8910   10.6830   23.9830 C   0  0  0  0  0  0  0  0  0  0  0  0
   20.0000   11.1750   25.2690 C   0  0  0  0  0  0  0  0  0  0  0  0
   19.1560   10.8050   26.2470 F   0  0  0  0  0  0  0  0  0  0  0  0
   20.9970   12.0860   25.5380 C   0  0  0  0  0  0  0  0  0  0  0  0
   21.8680   12.5160   24.6100 N   0  0  0  0  0  0  0  0  0  0  0  0
   25.6330   11.6390   20.9980 C   0  0  0  0  0  0  0  0  0  0  0  0
   26.7680   11.9420   20.2660 C   0  0  0  0  0  0  0  0  0  0  0  0
   27.4450   13.1280   20.4670 C   0  0  0  0  0  0  0  0  0  0  0  0
   28.5730   13.3880   19.7560 F   0  0  0  0  0  0  0  0  0  0  0  0
   29.1990   15.2960   21.8740 C   0  0  0  0  0  0  0  0  0  0  0  0
   29.4690   14.4480   23.4100 S   0  0  0  0  0  0  0  0  0  0  0  0
   30.7300   14.9390   23.9380 O   0  0  0  0  0  0  0  0  0  0  0  0
   29.1210   13.0650   23.3180 O   0  0  0  0  0  0  0  0  0  0  0  0
   27.9613   15.6797   26.4011 H   0  0  0  0  0  0  0  0  0  0  0  0
   27.7760   13.9255   26.0617 H   0  0  0  0  0  0  0  0  0  0  0  0
   29.4095   14.6726   26.0617 H   0  0  0  0  0  0  0  0  0  0  0  0
   25.9210   17.4100   24.5640 H   0  0  0  0  0  0  0  0  0  0  0  0
   26.7950   16.5890   25.7760 H   0  0  0  0  0  0  0  0  0  0  0  0
   27.4015   17.3021   20.5851 H   0  0  0  0  0  0  0  0  0  0  0  0
   28.5010   16.1792   19.7150 H   0  0  0  0  0  0  0  0  0  0  0  0
   26.7295   15.8815   19.7150 H   0  0  0  0  0  0  0  0  0  0  0  0
   25.4777   14.4825   22.8352 H   0  0  0  0  0  0  0  0  0  0  0  0
   24.2270   12.0950   23.6590 H   0  0  0  0  0  0  0  0  0  0  0  0
   20.7135   10.7227   21.9765 H   0  0  0  0  0  0  0  0  0  0  0  0
   19.1005    9.9594   23.7351 H   0  0  0  0  0  0  0  0  0  0  0  0
   21.0844   12.4803   26.5612 H   0  0  0  0  0  0  0  0  0  0  0  0
   25.0954   10.6919   20.8434 H   0  0  0  0  0  0  0  0  0  0  0  0
   27.1354   11.2281   19.5141 H   0  0  0  0  0  0  0  0  0  0  0  0
   29.6885   14.7379   21.0622 H   0  0  0  0  0  0  0  0  0  0  0  0
   29.6221   16.3086   21.9493 H   0  0  0  0  0  0  0  0  0  0  0  0
  1  2  1  0
  2  3  1  0
  3  4  1  0
  3  5  2  0
  5  6  1  0
  6  7  1  6
  6  8  1  0
  8  9  2  0
  9 10  1  0
 10 11  1  0
 11 12  1  0
 12 13  2  0
 12 14  1  0
 14 15  2  0
 15 16  1  0
 16 17  2  0
 17 18  1  0
 17 19  1  0
 19 20  2  0
 10 21  2  0
 21 22  1  0
 22 23  2  0
 23 24  1  0
  6 25  1  0
 25 26  1  0
 26 27  2  0
 26 28  2  0
 26  2  1  0
 23  8  1  0
 20 14  1  0
  1 29  1  0
  1 30  1  0
  1 31  1  0
  4 32  1  0
  4 33  1  0
  7 34  1  0
  7 35  1  0
  7 36  1  0
  9 37  1  0
 11 38  1  0
 15 39  1  0
 16 40  1  0
 19 41  1  0
 21 42  1  0
 22 43  1  0
 25 44  1  0
 25 45  1  0
M  END
>  <meeko>  (13)
{"is_sidechain": false}

>  <source_group>  (13)
BACE1 canonical

>  <source_system>  (13)
BACE1_verubecestat

>  <source_run>  (13)
canonical_obabel_seed5519_ex32

>  <source_seed>  (13)
5519

>  <vina_pose_rank>  (13)
13

>  <vina_affinity_kcal_mol>  (13)
-7.4299999999999997

>  <vina_rmsd_to_crystal_angstrom>  (13)
7.8876999999999997

$$$$
BACE1_verubecestat__canonical_obabel_seed5519_ex32__pose14
     RDKit          3D

 45 47  0  0  0  0  0  0  0  0999 V2000
   27.3860   11.4470   19.8940 C   0  0  0  0  0  0  0  0  0  0  0  0
   25.9520   11.8000   19.8970 N   0  0  0  0  0  0  0  0  0  0  0  0
   25.4860   13.1280   19.7850 C   0  0  0  0  0  0  0  0  0  0  0  0
   26.4710   14.0420   19.5210 N   0  0  0  0  0  0  0  0  0  0  0  0
   24.2380   13.4670   19.8950 N   0  0  0  0  0  0  0  0  0  0  0  0
   23.2100   12.4980   20.2710 C   0  0  2  0  0  0  0  0  0  0  0  0
   21.9150   13.1810   19.8210 C   0  0  0  0  0  0  0  0  0  0  0  0
   23.1530   12.2800   21.7750 C   0  0  0  0  0  0  0  0  0  0  0  0
   24.1020   12.8510   22.6210 C   0  0  0  0  0  0  0  0  0  0  0  0
   24.0770   12.6690   23.9850 C   0  0  0  0  0  0  0  0  0  0  0  0
   25.0880   13.3000   24.7220 N   0  0  0  0  0  0  0  0  0  0  0  0
   26.4210   13.4550   24.3880 C   0  0  0  0  0  0  0  0  0  0  0  0
   26.9710   12.9380   23.4250 O   0  0  0  0  0  0  0  0  0  0  0  0
   27.1960   14.3540   25.2770 C   0  0  0  0  0  0  0  0  0  0  0  0
   26.5730   15.4330   25.8810 C   0  0  0  0  0  0  0  0  0  0  0  0
   27.3440   16.2410   26.6990 C   0  0  0  0  0  0  0  0  0  0  0  0
   28.6810   15.9510   26.8880 C   0  0  0  0  0  0  0  0  0  0  0  0
   29.4710   16.7110   27.6660 F   0  0  0  0  0  0  0  0  0  0  0  0
   29.2120   14.8590   26.2400 C   0  0  0  0  0  0  0  0  0  0  0  0
   28.4910   14.0610   25.4360 N   0  0  0  0  0  0  0  0  0  0  0  0
   23.0710   11.9130   24.5750 C   0  0  0  0  0  0  0  0  0  0  0  0
   22.1220   11.3360   23.7500 C   0  0  0  0  0  0  0  0  0  0  0  0
   22.1790   11.5010   22.3800 C   0  0  0  0  0  0  0  0  0  0  0  0
   21.2520   10.9000   21.5900 F   0  0  0  0  0  0  0  0  0  0  0  0
   23.3570   11.2390   19.4460 C   0  0  0  0  0  0  0  0  0  0  0  0
   24.9030   10.4390   19.7930 S   0  0  0  0  0  0  0  0  0  0  0  0
   25.2680    9.7050   18.5940 O   0  0  0  0  0  0  0  0  0  0  0  0
   24.9270    9.8860   21.1110 O   0  0  0  0  0  0  0  0  0  0  0  0
   27.7441   11.3589   20.9303 H   0  0  0  0  0  0  0  0  0  0  0  0
   27.5263   10.4875   19.3747 H   0  0  0  0  0  0  0  0  0  0  0  0
   27.9557   12.2317   19.3747 H   0  0  0  0  0  0  0  0  0  0  0  0
   26.2440   14.9950   19.4250 H   0  0  0  0  0  0  0  0  0  0  0  0
   27.4050   13.7460   19.4260 H   0  0  0  0  0  0  0  0  0  0  0  0
   21.3355   13.4866   20.7046 H   0  0  0  0  0  0  0  0  0  0  0  0
   22.1587   14.0679   19.2176 H   0  0  0  0  0  0  0  0  0  0  0  0
   21.3208   12.4790   19.2176 H   0  0  0  0  0  0  0  0  0  0  0  0
   24.8995   13.4692   22.1829 H   0  0  0  0  0  0  0  0  0  0  0  0
   24.8140   13.6820   25.5870 H   0  0  0  0  0  0  0  0  0  0  0  0
   25.5053   15.6404   25.7170 H   0  0  0  0  0  0  0  0  0  0  0  0
   26.8929   17.1118   27.1972 H   0  0  0  0  0  0  0  0  0  0  0  0
   30.2775   14.6291   26.3877 H   0  0  0  0  0  0  0  0  0  0  0  0
   23.0305   11.7774   25.6659 H   0  0  0  0  0  0  0  0  0  0  0  0
   21.3112   10.7378   24.1912 H   0  0  0  0  0  0  0  0  0  0  0  0
   22.5326   10.5515   19.6863 H   0  0  0  0  0  0  0  0  0  0  0  0
   23.3299   11.5093   18.3801 H   0  0  0  0  0  0  0  0  0  0  0  0
  1  2  1  0
  2  3  1  0
  3  4  1  0
  3  5  2  0
  5  6  1  0
  6  7  1  6
  6  8  1  0
  8  9  2  0
  9 10  1  0
 10 11  1  0
 11 12  1  0
 12 13  2  0
 12 14  1  0
 14 15  2  0
 15 16  1  0
 16 17  2  0
 17 18  1  0
 17 19  1  0
 19 20  2  0
 10 21  2  0
 21 22  1  0
 22 23  2  0
 23 24  1  0
  6 25  1  0
 25 26  1  0
 26 27  2  0
 26 28  2  0
 26  2  1  0
 23  8  1  0
 20 14  1  0
  1 29  1  0
  1 30  1  0
  1 31  1  0
  4 32  1  0
  4 33  1  0
  7 34  1  0
  7 35  1  0
  7 36  1  0
  9 37  1  0
 11 38  1  0
 15 39  1  0
 16 40  1  0
 19 41  1  0
 21 42  1  0
 22 43  1  0
 25 44  1  0
 25 45  1  0
M  END
>  <meeko>  (14)
{"is_sidechain": false}

>  <source_group>  (14)
BACE1 canonical

>  <source_system>  (14)
BACE1_verubecestat

>  <source_run>  (14)
canonical_obabel_seed5519_ex32

>  <source_seed>  (14)
5519

>  <vina_pose_rank>  (14)
14

>  <vina_affinity_kcal_mol>  (14)
-7.4180000000000001

>  <vina_rmsd_to_crystal_angstrom>  (14)
5.8257000000000003

$$$$
BACE1_verubecestat__canonical_obabel_seed5519_ex32__pose15
     RDKit          3D

 45 47  0  0  0  0  0  0  0  0999 V2000
   24.6350   13.9440   19.5560 C   0  0  0  0  0  0  0  0  0  0  0  0
   23.8030   12.7380   19.7440 N   0  0  0  0  0  0  0  0  0  0  0  0
   22.4130   12.7160   19.4950 C   0  0  0  0  0  0  0  0  0  0  0  0
   21.9320   13.8620   18.9220 N   0  0  0  0  0  0  0  0  0  0  0  0
   21.6490   11.7000   19.7580 N   0  0  0  0  0  0  0  0  0  0  0  0
   22.1540   10.5200   20.4560 C   0  0  2  0  0  0  0  0  0  0  0  0
   21.1080    9.4520   20.1260 C   0  0  0  0  0  0  0  0  0  0  0  0
   22.1920   10.7210   21.9630 C   0  0  0  0  0  0  0  0  0  0  0  0
   21.4830   11.7570   22.5690 C   0  0  0  0  0  0  0  0  0  0  0  0
   21.5010   11.9640   23.9300 C   0  0  0  0  0  0  0  0  0  0  0  0
   20.7430   13.0400   24.4110 N   0  0  0  0  0  0  0  0  0  0  0  0
   19.5060   13.0080   25.0300 C   0  0  0  0  0  0  0  0  0  0  0  0
   18.8010   12.0130   25.1440 O   0  0  0  0  0  0  0  0  0  0  0  0
   19.0580   14.2940   25.6160 C   0  0  0  0  0  0  0  0  0  0  0  0
   17.8730   14.8700   25.1930 C   0  0  0  0  0  0  0  0  0  0  0  0
   17.5040   16.0720   25.7720 C   0  0  0  0  0  0  0  0  0  0  0  0
   18.3090   16.6470   26.7370 C   0  0  0  0  0  0  0  0  0  0  0  0
   17.9960   17.8160   27.3200 F   0  0  0  0  0  0  0  0  0  0  0  0
   19.4720   16.0000   27.0870 C   0  0  0  0  0  0  0  0  0  0  0  0
   19.8600   14.8370   26.5390 N   0  0  0  0  0  0  0  0  0  0  0  0
   22.2230   11.1160   24.7610 C   0  0  0  0  0  0  0  0  0  0  0  0
   22.9350   10.0840   24.1760 C   0  0  0  0  0  0  0  0  0  0  0  0
   22.9340    9.9080   22.8070 C   0  0  0  0  0  0  0  0  0  0  0  0
   23.6650    8.9050   22.2560 F   0  0  0  0  0  0  0  0  0  0  0  0
   23.4590   10.0690   19.8370 C   0  0  0  0  0  0  0  0  0  0  0  0
   24.7130   11.3080   20.0440 S   0  0  0  0  0  0  0  0  0  0  0  0
   25.6400   11.1480   18.9380 O   0  0  0  0  0  0  0  0  0  0  0  0
   25.1080   11.4350   21.4120 O   0  0  0  0  0  0  0  0  0  0  0  0
   24.9165   14.3520   20.5380 H   0  0  0  0  0  0  0  0  0  0  0  0
   25.5433   13.6790   18.9950 H   0  0  0  0  0  0  0  0  0  0  0  0
   24.0648   14.6991   18.9950 H   0  0  0  0  0  0  0  0  0  0  0  0
   20.9740   13.9430   18.7100 H   0  0  0  0  0  0  0  0  0  0  0  0
   22.5450   14.6070   18.7200 H   0  0  0  0  0  0  0  0  0  0  0  0
   20.7010    9.0365   21.0597 H   0  0  0  0  0  0  0  0  0  0  0  0
   20.2940    9.9045   19.5406 H   0  0  0  0  0  0  0  0  0  0  0  0
   21.5773    8.6476   19.5406 H   0  0  0  0  0  0  0  0  0  0  0  0
   20.8880   12.4331   21.9374 H   0  0  0  0  0  0  0  0  0  0  0  0
   21.1420   13.9320   24.2940 H   0  0  0  0  0  0  0  0  0  0  0  0
   17.2477   14.3907   24.4254 H   0  0  0  0  0  0  0  0  0  0  0  0
   16.5718   16.5685   25.4646 H   0  0  0  0  0  0  0  0  0  0  0  0
   20.1152   16.4578   27.8530 H   0  0  0  0  0  0  0  0  0  0  0  0
   22.2283   11.2609   25.8514 H   0  0  0  0  0  0  0  0  0  0  0  0
   23.5101    9.3940   24.8109 H   0  0  0  0  0  0  0  0  0  0  0  0
   23.7869    9.1386   20.3236 H   0  0  0  0  0  0  0  0  0  0  0  0
   23.3010    9.9020   18.7613 H   0  0  0  0  0  0  0  0  0  0  0  0
  1  2  1  0
  2  3  1  0
  3  4  1  0
  3  5  2  0
  5  6  1  0
  6  7  1  1
  6  8  1  0
  8  9  2  0
  9 10  1  0
 10 11  1  0
 11 12  1  0
 12 13  2  0
 12 14  1  0
 14 15  2  0
 15 16  1  0
 16 17  2  0
 17 18  1  0
 17 19  1  0
 19 20  2  0
 10 21  2  0
 21 22  1  0
 22 23  2  0
 23 24  1  0
  6 25  1  0
 25 26  1  0
 26 27  2  0
 26 28  2  0
 26  2  1  0
 23  8  1  0
 20 14  1  0
  1 29  1  0
  1 30  1  0
  1 31  1  0
  4 32  1  0
  4 33  1  0
  7 34  1  0
  7 35  1  0
  7 36  1  0
  9 37  1  0
 11 38  1  0
 15 39  1  0
 16 40  1  0
 19 41  1  0
 21 42  1  0
 22 43  1  0
 25 44  1  0
 25 45  1  0
M  END
>  <meeko>  (15)
{"is_sidechain": false}

>  <source_group>  (15)
BACE1 canonical

>  <source_system>  (15)
BACE1_verubecestat

>  <source_run>  (15)
canonical_obabel_seed5519_ex32

>  <source_seed>  (15)
5519

>  <vina_pose_rank>  (15)
15

>  <vina_affinity_kcal_mol>  (15)
-7.375

>  <vina_rmsd_to_crystal_angstrom>  (15)
8.5130999999999997

$$$$
BACE1_verubecestat__canonical_obabel_seed5519_ex32__pose16
     RDKit          3D

 45 47  0  0  0  0  0  0  0  0999 V2000
   17.0990   17.9160   27.2650 C   0  0  0  0  0  0  0  0  0  0  0  0
   16.7450   16.5840   26.7360 N   0  0  0  0  0  0  0  0  0  0  0  0
   16.0260   15.6250   27.4830 C   0  0  0  0  0  0  0  0  0  0  0  0
   15.5560   16.0930   28.6810 N   0  0  0  0  0  0  0  0  0  0  0  0
   15.8010   14.4140   27.0760 N   0  0  0  0  0  0  0  0  0  0  0  0
   16.3880   13.8970   25.8400 C   0  0  2  0  0  0  0  0  0  0  0  0
   15.5110   12.6830   25.5260 C   0  0  0  0  0  0  0  0  0  0  0  0
   17.8210   13.4290   26.0410 C   0  0  0  0  0  0  0  0  0  0  0  0
   18.6610   13.1940   24.9540 C   0  0  0  0  0  0  0  0  0  0  0  0
   19.9610   12.7680   25.1060 C   0  0  0  0  0  0  0  0  0  0  0  0
   20.6980   12.5710   23.9310 N   0  0  0  0  0  0  0  0  0  0  0  0
   20.7150   11.4620   23.1050 C   0  0  0  0  0  0  0  0  0  0  0  0
   20.1660   10.3950   23.3470 O   0  0  0  0  0  0  0  0  0  0  0  0
   21.4370   11.6390   21.8220 C   0  0  0  0  0  0  0  0  0  0  0  0
   22.2000   12.7750   21.6090 C   0  0  0  0  0  0  0  0  0  0  0  0
   22.8500   12.8890   20.3930 C   0  0  0  0  0  0  0  0  0  0  0  0
   22.7260   11.8880   19.4490 C   0  0  0  0  0  0  0  0  0  0  0  0
   23.3320   11.9590   18.2520 F   0  0  0  0  0  0  0  0  0  0  0  0
   21.9410   10.7990   19.7520 C   0  0  0  0  0  0  0  0  0  0  0  0
   21.2920   10.6630   20.9200 N   0  0  0  0  0  0  0  0  0  0  0  0
   20.4940   12.5750   26.3740 C   0  0  0  0  0  0  0  0  0  0  0  0
   19.6730   12.8000   27.4660 C   0  0  0  0  0  0  0  0  0  0  0  0
   18.3620   13.1970   27.2970 C   0  0  0  0  0  0  0  0  0  0  0  0
   17.5690   13.3830   28.3830 F   0  0  0  0  0  0  0  0  0  0  0  0
   16.1900   14.8900   24.7170 C   0  0  0  0  0  0  0  0  0  0  0  0
   17.0600   16.4000   25.0530 S   0  0  0  0  0  0  0  0  0  0  0  0
   16.3400   17.4550   24.3630 O   0  0  0  0  0  0  0  0  0  0  0  0
   18.4770   16.2180   24.9880 O   0  0  0  0  0  0  0  0  0  0  0  0
   17.0915   17.8877   28.3646 H   0  0  0  0  0  0  0  0  0  0  0  0
   18.1027   18.1957   26.9123 H   0  0  0  0  0  0  0  0  0  0  0  0
   16.3666   18.6571   26.9123 H   0  0  0  0  0  0  0  0  0  0  0  0
   15.0420   15.4980   29.2730 H   0  0  0  0  0  0  0  0  0  0  0  0
   15.7310   17.0240   28.9490 H   0  0  0  0  0  0  0  0  0  0  0  0
   15.1762   12.2196   26.4658 H   0  0  0  0  0  0  0  0  0  0  0  0
   14.6351   13.0043   24.9432 H   0  0  0  0  0  0  0  0  0  0  0  0
   16.0912   11.9524   24.9432 H   0  0  0  0  0  0  0  0  0  0  0  0
   18.2711   13.3547   23.9381 H   0  0  0  0  0  0  0  0  0  0  0  0
   21.2790   13.3190   23.6590 H   0  0  0  0  0  0  0  0  0  0  0  0
   22.2860   13.5572   22.3777 H   0  0  0  0  0  0  0  0  0  0  0  0
   23.4647   13.7755   20.1781 H   0  0  0  0  0  0  0  0  0  0  0  0
   21.8402   10.0014   19.0013 H   0  0  0  0  0  0  0  0  0  0  0  0
   21.5374   12.2530   26.5067 H   0  0  0  0  0  0  0  0  0  0  0  0
   20.0710   12.6605   28.4819 H   0  0  0  0  0  0  0  0  0  0  0  0
   16.5692   14.4558   23.7802 H   0  0  0  0  0  0  0  0  0  0  0  0
   15.1166   15.1130   24.6277 H   0  0  0  0  0  0  0  0  0  0  0  0
  1  2  1  0
  2  3  1  0
  3  4  1  0
  3  5  2  0
  5  6  1  0
  6  7  1  6
  6  8  1  0
  8  9  2  0
  9 10  1  0
 10 11  1  0
 11 12  1  0
 12 13  2  0
 12 14  1  0
 14 15  2  0
 15 16  1  0
 16 17  2  0
 17 18  1  0
 17 19  1  0
 19 20  2  0
 10 21  2  0
 21 22  1  0
 22 23  2  0
 23 24  1  0
  6 25  1  0
 25 26  1  0
 26 27  2  0
 26 28  2  0
 26  2  1  0
 23  8  1  0
 20 14  1  0
  1 29  1  0
  1 30  1  0
  1 31  1  0
  4 32  1  0
  4 33  1  0
  7 34  1  0
  7 35  1  0
  7 36  1  0
  9 37  1  0
 11 38  1  0
 15 39  1  0
 16 40  1  0
 19 41  1  0
 21 42  1  0
 22 43  1  0
 25 44  1  0
 25 45  1  0
M  END
>  <meeko>  (16)
{"is_sidechain": false}

>  <source_group>  (16)
BACE1 canonical

>  <source_system>  (16)
BACE1_verubecestat

>  <source_run>  (16)
canonical_obabel_seed5519_ex32

>  <source_seed>  (16)
5519

>  <vina_pose_rank>  (16)
16

>  <vina_affinity_kcal_mol>  (16)
-7.3099999999999996

>  <vina_rmsd_to_crystal_angstrom>  (16)
8.3255999999999997

$$$$
BACE1_verubecestat__canonical_obabel_seed5519_ex32__pose17
     RDKit          3D

 45 47  0  0  0  0  0  0  0  0999 V2000
   29.7380   15.3790   22.3200 C   0  0  0  0  0  0  0  0  0  0  0  0
   29.1820   14.0800   21.8930 N   0  0  0  0  0  0  0  0  0  0  0  0
   29.7780   13.2790   20.8930 C   0  0  0  0  0  0  0  0  0  0  0  0
   30.9940   13.7380   20.4650 N   0  0  0  0  0  0  0  0  0  0  0  0
   29.2460   12.1900   20.4290 N   0  0  0  0  0  0  0  0  0  0  0  0
   27.9060   11.7610   20.8240 C   0  0  2  0  0  0  0  0  0  0  0  0
   27.8950   10.2770   20.4450 C   0  0  0  0  0  0  0  0  0  0  0  0
   26.8210   12.4770   20.0350 C   0  0  0  0  0  0  0  0  0  0  0  0
   27.1440   13.3680   19.0120 C   0  0  0  0  0  0  0  0  0  0  0  0
   26.1840   14.0320   18.2830 C   0  0  0  0  0  0  0  0  0  0  0  0
   26.6430   14.8970   17.2810 N   0  0  0  0  0  0  0  0  0  0  0  0
   27.1770   16.1660   17.4230 C   0  0  0  0  0  0  0  0  0  0  0  0
   27.2150   16.8010   18.4680 O   0  0  0  0  0  0  0  0  0  0  0  0
   27.7670   16.7450   16.1920 C   0  0  0  0  0  0  0  0  0  0  0  0
   28.6690   16.0080   15.4450 C   0  0  0  0  0  0  0  0  0  0  0  0
   29.1900   16.5980   14.3070 C   0  0  0  0  0  0  0  0  0  0  0  0
   28.8010   17.8760   13.9550 C   0  0  0  0  0  0  0  0  0  0  0  0
   29.2870   18.4930   12.8640 F   0  0  0  0  0  0  0  0  0  0  0  0
   27.9020   18.5310   14.7650 C   0  0  0  0  0  0  0  0  0  0  0  0
   27.3840   17.9870   15.8780 N   0  0  0  0  0  0  0  0  0  0  0  0
   24.8350   13.8150   18.5350 C   0  0  0  0  0  0  0  0  0  0  0  0
   24.4960   12.9370   19.5490 C   0  0  0  0  0  0  0  0  0  0  0  0
   25.4700   12.3020   20.2930 C   0  0  0  0  0  0  0  0  0  0  0  0
   25.1110   11.4680   21.3020 F   0  0  0  0  0  0  0  0  0  0  0  0
   27.7590   11.8350   22.3280 C   0  0  0  0  0  0  0  0  0  0  0  0
   27.8980   13.5130   22.8900 S   0  0  0  0  0  0  0  0  0  0  0  0
   28.4040   13.4530   24.2490 O   0  0  0  0  0  0  0  0  0  0  0  0
   26.7760   14.3000   22.4830 O   0  0  0  0  0  0  0  0  0  0  0  0
   29.7581   15.4259   23.4188 H   0  0  0  0  0  0  0  0  0  0  0  0
   30.7608   15.4862   21.9297 H   0  0  0  0  0  0  0  0  0  0  0  0
   29.1094   16.1930   21.9297 H   0  0  0  0  0  0  0  0  0  0  0  0
   31.4890   13.2470   19.7690 H   0  0  0  0  0  0  0  0  0  0  0  0
   31.3750   14.5590   20.8530 H   0  0  0  0  0  0  0  0  0  0  0  0
   27.8905    9.6651   21.3591 H   0  0  0  0  0  0  0  0  0  0  0  0
   26.9952   10.0567   19.8519 H   0  0  0  0  0  0  0  0  0  0  0  0
   28.7914   10.0434   19.8519 H   0  0  0  0  0  0  0  0  0  0  0  0
   28.2042   13.5465   18.7794 H   0  0  0  0  0  0  0  0  0  0  0  0
   26.5780   14.5590   16.3590 H   0  0  0  0  0  0  0  0  0  0  0  0
   28.9610   14.9907   15.7448 H   0  0  0  0  0  0  0  0  0  0  0  0
   29.9125   16.0505   13.6838 H   0  0  0  0  0  0  0  0  0  0  0  0
   27.5927   19.5495   14.4874 H   0  0  0  0  0  0  0  0  0  0  0  0
   24.0595   14.3262   17.9457 H   0  0  0  0  0  0  0  0  0  0  0  0
   23.4352   12.7422   19.7654 H   0  0  0  0  0  0  0  0  0  0  0  0
   26.7737   11.4387   22.6145 H   0  0  0  0  0  0  0  0  0  0  0  0
   28.5593   11.2393   22.7914 H   0  0  0  0  0  0  0  0  0  0  0  0
  1  2  1  0
  2  3  1  0
  3  4  1  0
  3  5  2  0
  5  6  1  0
  6  7  1  6
  6  8  1  0
  8  9  2  0
  9 10  1  0
 10 11  1  0
 11 12  1  0
 12 13  2  0
 12 14  1  0
 14 15  2  0
 15 16  1  0
 16 17  2  0
 17 18  1  0
 17 19  1  0
 19 20  2  0
 10 21  2  0
 21 22  1  0
 22 23  2  0
 23 24  1  0
  6 25  1  0
 25 26  1  0
 26 27  2  0
 26 28  2  0
 26  2  1  0
 23  8  1  0
 20 14  1  0
  1 29  1  0
  1 30  1  0
  1 31  1  0
  4 32  1  0
  4 33  1  0
  7 34  1  0
  7 35  1  0
  7 36  1  0
  9 37  1  0
 11 38  1  0
 15 39  1  0
 16 40  1  0
 19 41  1  0
 21 42  1  0
 22 43  1  0
 25 44  1  0
 25 45  1  0
M  END
>  <meeko>  (17)
{"is_sidechain": false}

>  <source_group>  (17)
BACE1 canonical

>  <source_system>  (17)
BACE1_verubecestat

>  <source_run>  (17)
canonical_obabel_seed5519_ex32

>  <source_seed>  (17)
5519

>  <vina_pose_rank>  (17)
17

>  <vina_affinity_kcal_mol>  (17)
-7.2880000000000003

>  <vina_rmsd_to_crystal_angstrom>  (17)
8.0213999999999999

$$$$
BACE1_verubecestat__canonical_obabel_seed5519_ex32__pose18
     RDKit          3D

 45 47  0  0  0  0  0  0  0  0999 V2000
   29.6610   16.5050   23.7560 C   0  0  0  0  0  0  0  0  0  0  0  0
   29.5960   15.2020   23.0650 N   0  0  0  0  0  0  0  0  0  0  0  0
   30.4800   14.8360   22.0260 C   0  0  0  0  0  0  0  0  0  0  0  0
   31.4950   15.7310   21.8190 N   0  0  0  0  0  0  0  0  0  0  0  0
   30.3690   13.7430   21.3360 N   0  0  0  0  0  0  0  0  0  0  0  0
   29.2290   12.8430   21.5010 C   0  0  2  0  0  0  0  0  0  0  0  0
   29.7360   11.5330   20.8910 C   0  0  0  0  0  0  0  0  0  0  0  0
   28.0140   13.3120   20.7160 C   0  0  0  0  0  0  0  0  0  0  0  0
   26.7350   12.8530   21.0280 C   0  0  0  0  0  0  0  0  0  0  0  0
   25.6170   13.2580   20.3330 C   0  0  0  0  0  0  0  0  0  0  0  0
   24.3910   12.7240   20.7500 N   0  0  0  0  0  0  0  0  0  0  0  0
   23.5650   11.8440   20.0730 C   0  0  0  0  0  0  0  0  0  0  0  0
   23.7210   11.4830   18.9140 O   0  0  0  0  0  0  0  0  0  0  0  0
   22.4380   11.2970   20.8660 C   0  0  0  0  0  0  0  0  0  0  0  0
   21.9200   12.0240   21.9240 C   0  0  0  0  0  0  0  0  0  0  0  0
   20.8700   11.4650   22.6300 C   0  0  0  0  0  0  0  0  0  0  0  0
   20.3770   10.2270   22.2660 C   0  0  0  0  0  0  0  0  0  0  0  0
   19.3650    9.6410   22.9270 F   0  0  0  0  0  0  0  0  0  0  0  0
   20.9620    9.5780   21.2020 C   0  0  0  0  0  0  0  0  0  0  0  0
   21.9860   10.0930   20.5010 N   0  0  0  0  0  0  0  0  0  0  0  0
   25.7290   14.1720   19.2930 C   0  0  0  0  0  0  0  0  0  0  0  0
   26.9910   14.6360   18.9680 C   0  0  0  0  0  0  0  0  0  0  0  0
   28.1070   14.1960   19.6520 C   0  0  0  0  0  0  0  0  0  0  0  0
   29.3380   14.6430   19.2940 F   0  0  0  0  0  0  0  0  0  0  0  0
   28.9820   12.5810   22.9700 C   0  0  0  0  0  0  0  0  0  0  0  0
   28.5210   14.0780   23.8040 S   0  0  0  0  0  0  0  0  0  0  0  0
   28.9400   13.9280   25.1860 O   0  0  0  0  0  0  0  0  0  0  0  0
   27.2250   14.5290   23.4020 O   0  0  0  0  0  0  0  0  0  0  0  0
   29.6530   16.3438   24.8441 H   0  0  0  0  0  0  0  0  0  0  0  0
   30.5863   17.0263   23.4694 H   0  0  0  0  0  0  0  0  0  0  0  0
   28.7922   17.1158   23.4694 H   0  0  0  0  0  0  0  0  0  0  0  0
   32.1630   15.5630   21.1160 H   0  0  0  0  0  0  0  0  0  0  0  0
   31.5570   16.5420   22.3750 H   0  0  0  0  0  0  0  0  0  0  0  0
   30.0065   10.8341   21.6962 H   0  0  0  0  0  0  0  0  0  0  0  0
   28.9452   11.0878   20.2693 H   0  0  0  0  0  0  0  0  0  0  0  0
   30.6204   11.7361   20.2693 H   0  0  0  0  0  0  0  0  0  0  0  0
   26.6145   12.1421   21.8588 H   0  0  0  0  0  0  0  0  0  0  0  0
   24.0770   13.0110   21.6380 H   0  0  0  0  0  0  0  0  0  0  0  0
   22.3281   13.0094   22.1932 H   0  0  0  0  0  0  0  0  0  0  0  0
   20.4282   12.0055   23.4801 H   0  0  0  0  0  0  0  0  0  0  0  0
   20.5725    8.5910   20.9120 H   0  0  0  0  0  0  0  0  0  0  0  0
   24.8403   14.5167   18.7440 H   0  0  0  0  0  0  0  0  0  0  0  0
   27.1072   15.3658   18.1532 H   0  0  0  0  0  0  0  0  0  0  0  0
   28.1713   11.8449   23.0744 H   0  0  0  0  0  0  0  0  0  0  0  0
   29.9078   12.1949   23.4214 H   0  0  0  0  0  0  0  0  0  0  0  0
  1  2  1  0
  2  3  1  0
  3  4  1  0
  3  5  2  0
  5  6  1  0
  6  7  1  6
  6  8  1  0
  8  9  2  0
  9 10  1  0
 10 11  1  0
 11 12  1  0
 12 13  2  0
 12 14  1  0
 14 15  2  0
 15 16  1  0
 16 17  2  0
 17 18  1  0
 17 19  1  0
 19 20  2  0
 10 21  2  0
 21 22  1  0
 22 23  2  0
 23 24  1  0
  6 25  1  0
 25 26  1  0
 26 27  2  0
 26 28  2  0
 26  2  1  0
 23  8  1  0
 20 14  1  0
  1 29  1  0
  1 30  1  0
  1 31  1  0
  4 32  1  0
  4 33  1  0
  7 34  1  0
  7 35  1  0
  7 36  1  0
  9 37  1  0
 11 38  1  0
 15 39  1  0
 16 40  1  0
 19 41  1  0
 21 42  1  0
 22 43  1  0
 25 44  1  0
 25 45  1  0
M  END
>  <meeko>  (18)
{"is_sidechain": false}

>  <source_group>  (18)
BACE1 canonical

>  <source_system>  (18)
BACE1_verubecestat

>  <source_run>  (18)
canonical_obabel_seed5519_ex32

>  <source_seed>  (18)
5519

>  <vina_pose_rank>  (18)
18

>  <vina_affinity_kcal_mol>  (18)
-7.2229999999999999

>  <vina_rmsd_to_crystal_angstrom>  (18)
7.7774999999999999

$$$$
BACE1_verubecestat__canonical_obabel_seed5519_ex32__pose19
     RDKit          3D

 45 47  0  0  0  0  0  0  0  0999 V2000
   28.6160   13.3670   23.7450 C   0  0  0  0  0  0  0  0  0  0  0  0
   28.5740   14.4500   22.7430 N   0  0  0  0  0  0  0  0  0  0  0  0
   27.7470   15.5870   22.8720 C   0  0  0  0  0  0  0  0  0  0  0  0
   27.1020   15.6710   24.0770 N   0  0  0  0  0  0  0  0  0  0  0  0
   27.6160   16.4930   21.9520 N   0  0  0  0  0  0  0  0  0  0  0  0
   28.2340   16.3450   20.6350 C   0  0  2  0  0  0  0  0  0  0  0  0
   28.2300   17.7760   20.0920 C   0  0  0  0  0  0  0  0  0  0  0  0
   27.4040   15.4670   19.7110 C   0  0  0  0  0  0  0  0  0  0  0  0
   26.3130   14.7450   20.1930 C   0  0  0  0  0  0  0  0  0  0  0  0
   25.5460   13.9400   19.3800 C   0  0  0  0  0  0  0  0  0  0  0  0
   24.4770   13.2700   19.9890 N   0  0  0  0  0  0  0  0  0  0  0  0
   23.1760   13.1440   19.5360 C   0  0  0  0  0  0  0  0  0  0  0  0
   22.7090   13.7220   18.5640 O   0  0  0  0  0  0  0  0  0  0  0  0
   22.3290   12.1950   20.3000 C   0  0  0  0  0  0  0  0  0  0  0  0
   21.8190   12.5630   21.5330 C   0  0  0  0  0  0  0  0  0  0  0  0
   21.0370   11.6390   22.2030 C   0  0  0  0  0  0  0  0  0  0  0  0
   20.7910   10.4040   21.6330 C   0  0  0  0  0  0  0  0  0  0  0  0
   20.0450    9.4720   22.2500 F   0  0  0  0  0  0  0  0  0  0  0  0
   21.3470   10.1290   20.4050 C   0  0  0  0  0  0  0  0  0  0  0  0
   22.1150   11.0030   19.7340 N   0  0  0  0  0  0  0  0  0  0  0  0
   25.8280   13.8380   18.0240 C   0  0  0  0  0  0  0  0  0  0  0  0
   26.9090   14.5460   17.5290 C   0  0  0  0  0  0  0  0  0  0  0  0
   27.6890   15.3240   18.3620 C   0  0  0  0  0  0  0  0  0  0  0  0
   28.7620   15.9850   17.8570 F   0  0  0  0  0  0  0  0  0  0  0  0
   29.6810   15.9310   20.7830 C   0  0  0  0  0  0  0  0  0  0  0  0
   29.8000   14.3300   21.5400 S   0  0  0  0  0  0  0  0  0  0  0  0
   31.0770   14.2920   22.2300 O   0  0  0  0  0  0  0  0  0  0  0  0
   29.3260   13.2990   20.6700 O   0  0  0  0  0  0  0  0  0  0  0  0
   28.5992   13.8015   24.7554 H   0  0  0  0  0  0  0  0  0  0  0  0
   27.7426   12.7114   23.6132 H   0  0  0  0  0  0  0  0  0  0  0  0
   29.5375   12.7810   23.6132 H   0  0  0  0  0  0  0  0  0  0  0  0
   26.5020   16.4300   24.2620 H   0  0  0  0  0  0  0  0  0  0  0  0
   27.2390   14.9740   24.7580 H   0  0  0  0  0  0  0  0  0  0  0  0
   28.2280   18.4867   20.9315 H   0  0  0  0  0  0  0  0  0  0  0  0
   29.1277   17.9374   19.4771 H   0  0  0  0  0  0  0  0  0  0  0  0
   27.3314   17.9323   19.4771 H   0  0  0  0  0  0  0  0  0  0  0  0
   26.0558   14.8209   21.2598 H   0  0  0  0  0  0  0  0  0  0  0  0
   24.6770   12.8340   20.8490 H   0  0  0  0  0  0  0  0  0  0  0  0
   22.0277   13.5532   21.9642 H   0  0  0  0  0  0  0  0  0  0  0  0
   20.6121   11.8866   23.1869 H   0  0  0  0  0  0  0  0  0  0  0  0
   21.1532    9.1460   19.9509 H   0  0  0  0  0  0  0  0  0  0  0  0
   25.2101   13.2127   17.3628 H   0  0  0  0  0  0  0  0  0  0  0  0
   27.1504   14.4884   16.4574 H   0  0  0  0  0  0  0  0  0  0  0  0
   30.1503   15.8963   19.7888 H   0  0  0  0  0  0  0  0  0  0  0  0
   30.1954   16.6639   21.4220 H   0  0  0  0  0  0  0  0  0  0  0  0
  1  2  1  0
  2  3  1  0
  3  4  1  0
  3  5  2  0
  5  6  1  0
  6  7  1  6
  6  8  1  0
  8  9  2  0
  9 10  1  0
 10 11  1  0
 11 12  1  0
 12 13  2  0
 12 14  1  0
 14 15  2  0
 15 16  1  0
 16 17  2  0
 17 18  1  0
 17 19  1  0
 19 20  2  0
 10 21  2  0
 21 22  1  0
 22 23  2  0
 23 24  1  0
  6 25  1  0
 25 26  1  0
 26 27  2  0
 26 28  2  0
 26  2  1  0
 23  8  1  0
 20 14  1  0
  1 29  1  0
  1 30  1  0
  1 31  1  0
  4 32  1  0
  4 33  1  0
  7 34  1  0
  7 35  1  0
  7 36  1  0
  9 37  1  0
 11 38  1  0
 15 39  1  0
 16 40  1  0
 19 41  1  0
 21 42  1  0
 22 43  1  0
 25 44  1  0
 25 45  1  0
M  END
>  <meeko>  (19)
{"is_sidechain": false}

>  <source_group>  (19)
BACE1 canonical

>  <source_system>  (19)
BACE1_verubecestat

>  <source_run>  (19)
canonical_obabel_seed5519_ex32

>  <source_seed>  (19)
5519

>  <vina_pose_rank>  (19)
19

>  <vina_affinity_kcal_mol>  (19)
-7.2210000000000001

>  <vina_rmsd_to_crystal_angstrom>  (19)
7.9763999999999999

$$$$
BACE1_verubecestat__canonical_obabel_seed5519_ex32__pose20
     RDKit          3D

 45 47  0  0  0  0  0  0  0  0999 V2000
   25.4400   13.9700   18.4870 C   0  0  0  0  0  0  0  0  0  0  0  0
   26.5550   13.4780   19.3200 N   0  0  0  0  0  0  0  0  0  0  0  0
   26.7660   12.1080   19.5920 C   0  0  0  0  0  0  0  0  0  0  0  0
   25.9390   11.2690   18.8940 N   0  0  0  0  0  0  0  0  0  0  0  0
   27.6730   11.6660   20.4080 N   0  0  0  0  0  0  0  0  0  0  0  0
   28.4850   12.5720   21.2180 C   0  0  2  0  0  0  0  0  0  0  0  0
   29.6730   11.6970   21.6250 C   0  0  0  0  0  0  0  0  0  0  0  0
   27.7550   13.0240   22.4740 C   0  0  0  0  0  0  0  0  0  0  0  0
   26.4190   12.6880   22.6900 C   0  0  0  0  0  0  0  0  0  0  0  0
   25.7330   13.0850   23.8150 C   0  0  0  0  0  0  0  0  0  0  0  0
   24.3960   12.6790   23.9110 N   0  0  0  0  0  0  0  0  0  0  0  0
   23.4650   12.5460   22.8960 C   0  0  0  0  0  0  0  0  0  0  0  0
   23.6350   12.8950   21.7350 O   0  0  0  0  0  0  0  0  0  0  0  0
   22.1930   11.8920   23.2850 C   0  0  0  0  0  0  0  0  0  0  0  0
   21.5730   11.0110   22.4150 C   0  0  0  0  0  0  0  0  0  0  0  0
   20.3870   10.4310   22.8290 C   0  0  0  0  0  0  0  0  0  0  0  0
   19.8680   10.7380   24.0720 C   0  0  0  0  0  0  0  0  0  0  0  0
   18.7150   10.2070   24.5130 F   0  0  0  0  0  0  0  0  0  0  0  0
   20.5550   11.6300   24.8640 C   0  0  0  0  0  0  0  0  0  0  0  0
   21.7050   12.2130   24.4880 N   0  0  0  0  0  0  0  0  0  0  0  0
   26.3690   13.8290   24.8010 C   0  0  0  0  0  0  0  0  0  0  0  0
   27.6940   14.1750   24.6020 C   0  0  0  0  0  0  0  0  0  0  0  0
   28.3610   13.7960   23.4530 C   0  0  0  0  0  0  0  0  0  0  0  0
   29.6520   14.1730   23.2680 F   0  0  0  0  0  0  0  0  0  0  0  0
   29.0310   13.6900   20.3580 C   0  0  0  0  0  0  0  0  0  0  0  0
   27.7120   14.6890   19.7160 S   0  0  0  0  0  0  0  0  0  0  0  0
   28.1900   15.2520   18.4660 O   0  0  0  0  0  0  0  0  0  0  0  0
   27.0750   15.4470   20.7470 O   0  0  0  0  0  0  0  0  0  0  0  0
   24.6276   14.3285   19.1363 H   0  0  0  0  0  0  0  0  0  0  0  0
   25.7933   14.7958   17.8520 H   0  0  0  0  0  0  0  0  0  0  0  0
   25.0682   13.1524   17.8520 H   0  0  0  0  0  0  0  0  0  0  0  0
   26.0100   10.2950   19.0160 H   0  0  0  0  0  0  0  0  0  0  0  0
   25.2740   11.6400   18.2700 H   0  0  0  0  0  0  0  0  0  0  0  0
   29.7355   11.6509   22.7223 H   0  0  0  0  0  0  0  0  0  0  0  0
   29.5360   10.6824   21.2226 H   0  0  0  0  0  0  0  0  0  0  0  0
   30.6013   12.1288   21.2226 H   0  0  0  0  0  0  0  0  0  0  0  0
   25.8949   12.0843   21.9345 H   0  0  0  0  0  0  0  0  0  0  0  0
   24.0780   12.4590   24.8170 H   0  0  0  0  0  0  0  0  0  0  0  0
   22.0074   10.7807   21.4310 H   0  0  0  0  0  0  0  0  0  0  0  0
   19.8584    9.7268   22.1697 H   0  0  0  0  0  0  0  0  0  0  0  0
   20.1420   11.8774   25.8530 H   0  0  0  0  0  0  0  0  0  0  0  0
   25.8350   14.1341   25.7130 H   0  0  0  0  0  0  0  0  0  0  0  0
   28.2233   14.7596   25.3689 H   0  0  0  0  0  0  0  0  0  0  0  0
   29.6982   14.3196   20.9650 H   0  0  0  0  0  0  0  0  0  0  0  0
   29.5839   13.2500   19.5150 H   0  0  0  0  0  0  0  0  0  0  0  0
  1  2  1  0
  2  3  1  0
  3  4  1  0
  3  5  2  0
  5  6  1  0
  6  7  1  1
  6  8  1  0
  8  9  2  0
  9 10  1  0
 10 11  1  0
 11 12  1  0
 12 13  2  0
 12 14  1  0
 14 15  2  0
 15 16  1  0
 16 17  2  0
 17 18  1  0
 17 19  1  0
 19 20  2  0
 10 21  2  0
 21 22  1  0
 22 23  2  0
 23 24  1  0
  6 25  1  0
 25 26  1  0
 26 27  2  0
 26 28  2  0
 26  2  1  0
 23  8  1  0
 20 14  1  0
  1 29  1  0
  1 30  1  0
  1 31  1  0
  4 32  1  0
  4 33  1  0
  7 34  1  0
  7 35  1  0
  7 36  1  0
  9 37  1  0
 11 38  1  0
 15 39  1  0
 16 40  1  0
 19 41  1  0
 21 42  1  0
 22 43  1  0
 25 44  1  0
 25 45  1  0
M  END
>  <meeko>  (20)
{"is_sidechain": false}

>  <source_group>  (20)
BACE1 canonical

>  <source_system>  (20)
BACE1_verubecestat

>  <source_run>  (20)
canonical_obabel_seed5519_ex32

>  <source_seed>  (20)
5519

>  <vina_pose_rank>  (20)
20

>  <vina_affinity_kcal_mol>  (20)
-7.0640000000000001

>  <vina_rmsd_to_crystal_angstrom>  (20)
7.8345000000000002

$$$$
