BACE1_verubecestat__canonical_obabel_seed5519_ex32__pose01


 31 33  0  0  0  0  0  0  0  0999 V2000
   22.8890   10.4870   20.5500 C   0  0  0  0  0  0  0  0  0  0  0  0
   24.1720   10.1120   20.9460 C   0  0  0  0  0  0  0  0  0  0  0  0
   25.2940   10.4610   20.2310 C   0  0  0  0  0  0  0  0  0  0  0  0
   25.1810   11.1950   19.0560 C   0  0  0  0  0  0  0  0  0  0  0  0
   23.9150   11.5790   18.6500 C   0  0  0  0  0  0  0  0  0  0  0  0
   22.8000   11.2490   19.3950 C   0  0  0  0  0  0  0  0  0  0  0  0
   21.5720   11.6630   18.9890 F   0  0  0  0  0  0  0  0  0  0  0  0
   23.1350   11.7370   25.0810 C   0  0  0  0  0  0  0  0  0  0  0  0
   22.5220   11.1630   23.8670 N   0  0  0  0  0  0  0  0  0  0  0  0
   22.4580    9.7730   23.6200 C   0  0  0  0  0  0  0  0  0  0  0  0
   22.8760    9.0020   24.6710 N   0  0  0  0  0  0  0  0  0  0  0  0
   22.0220    9.2570   22.5130 N   0  0  0  0  0  0  0  0  0  0  0  0
   21.6670   10.0890   21.3640 C   0  0  0  0  0  0  0  0  0  0  0  0
   20.7950    9.1550   20.5200 C   0  0  0  0  0  0  0  0  0  0  0  0
   20.7890   11.2380   21.8060 C   0  0  0  0  0  0  0  0  0  0  0  0
   21.6710   12.3130   22.9090 S   0  0  0  0  0  0  0  0  0  0  0  0
   20.6760   12.9330   23.7660 O   0  0  0  0  0  0  0  0  0  0  0  0
   22.7070   13.0280   22.2330 O   0  0  0  0  0  0  0  0  0  0  0  0
   22.8680    8.0210   24.5950 H   0  0  0  0  0  0  0  0  0  0  0  0
   23.1840    9.4290   25.5030 H   0  0  0  0  0  0  0  0  0  0  0  0
   26.5240   10.0180   20.7360 N   0  0  0  0  0  0  0  0  0  0  0  0
   27.6480   10.7670   21.0340 C   0  0  0  0  0  0  0  0  0  0  0  0
   27.7920   11.9550   20.7740 O   0  0  0  0  0  0  0  0  0  0  0  0
   26.5960    9.0500   20.9010 H   0  0  0  0  0  0  0  0  0  0  0  0
   28.7210   10.0400   21.7540 C   0  0  0  0  0  0  0  0  0  0  0  0
   28.6420    8.6670   21.9080 C   0  0  0  0  0  0  0  0  0  0  0  0
   29.6700    8.0390   22.5890 C   0  0  0  0  0  0  0  0  0  0  0  0
   30.7230    8.7840   23.0830 C   0  0  0  0  0  0  0  0  0  0  0  0
   31.7390    8.2200   23.7590 F   0  0  0  0  0  0  0  0  0  0  0  0
   30.7100   10.1460   22.8850 C   0  0  0  0  0  0  0  0  0  0  0  0
   29.7240   10.7840   22.2320 N   0  0  0  0  0  0  0  0  0  0  0  0
  8  9  1  0
  9 10  1  0
 10 11  1  0
 10 12  2  0
 12 13  1  0
 13 14  1  0
 13  1  1  0
  1  2  2  0
  2  3  1  0
  3 21  1  0
 21 22  1  0
 22 23  2  0
 22 25  1  0
 25 26  2  0
 26 27  1  0
 27 28  2  0
 28 29  1  0
 28 30  1  0
 30 31  2  0
  3  4  2  0
  4  5  1  0
  5  6  2  0
  6  7  1  0
 13 15  1  0
 15 16  1  0
 16 17  2  0
 16 18  2  0
 16  9  1  0
  6  1  1  0
 31 25  1  0
 11 19  1  0
 11 20  1  0
 21 24  1  0
M  END
> <meeko>
{"is_sidechain": false}

> <source_group>
BACE1 canonical

> <source_system>
BACE1_verubecestat

> <source_run>
canonical_obabel_seed5519_ex32

> <source_seed>
5519

> <vina_pose_rank>
1

> <vina_affinity_kcal_mol>
-9.5310000000000006

> <vina_rmsd_to_crystal_angstrom>
0.95420000000000005

> <minimizedAffinity>
-9.53450

> <CNNscore>
0.9217302203

> <CNNaffinity>
7.3632884026

> <CNN_VS>
6.7869653702

> <CNNaffinity_variance>
0.0851089582

$$$$
BACE1_verubecestat__canonical_obabel_seed5519_ex32__pose02


 31 33  0  0  0  0  0  0  0  0999 V2000
   20.6750   12.3840   26.7340 C   0  0  0  0  0  0  0  0  0  0  0  0
   21.0650   12.6910   25.4310 C   0  0  0  0  0  0  0  0  0  0  0  0
   21.4460   11.7240   24.5290 C   0  0  0  0  0  0  0  0  0  0  0  0
   21.4750   10.3860   24.9030 C   0  0  0  0  0  0  0  0  0  0  0  0
   21.0870   10.0620   26.1910 C   0  0  0  0  0  0  0  0  0  0  0  0
   20.6770   11.0400   27.0750 C   0  0  0  0  0  0  0  0  0  0  0  0
   20.2730   10.6920   28.3240 F   0  0  0  0  0  0  0  0  0  0  0  0
   16.9180   14.8440   25.3260 C   0  0  0  0  0  0  0  0  0  0  0  0
   18.0120   14.4460   26.2330 N   0  0  0  0  0  0  0  0  0  0  0  0
   19.2100   15.1840   26.3640 C   0  0  0  0  0  0  0  0  0  0  0  0
   19.2050   16.3770   25.6930 N   0  0  0  0  0  0  0  0  0  0  0  0
   20.2240   14.7920   27.0730 N   0  0  0  0  0  0  0  0  0  0  0  0
   20.2560   13.4750   27.7070 C   0  0  0  0  0  0  0  0  0  0  0  0
   21.3460   13.6330   28.7710 C   0  0  0  0  0  0  0  0  0  0  0  0
   18.9570   13.2190   28.4370 C   0  0  0  0  0  0  0  0  0  0  0  0
   17.5980   13.1580   27.2960 S   0  0  0  0  0  0  0  0  0  0  0  0
   16.4190   13.5720   28.0350 O   0  0  0  0  0  0  0  0  0  0  0  0
   17.6590   11.9960   26.4650 O   0  0  0  0  0  0  0  0  0  0  0  0
   19.9950   16.9630   25.7250 H   0  0  0  0  0  0  0  0  0  0  0  0
   18.4100   16.6500   25.1800 H   0  0  0  0  0  0  0  0  0  0  0  0
   21.8180   12.1670   23.2530 N   0  0  0  0  0  0  0  0  0  0  0  0
   23.0860   12.4670   22.7860 C   0  0  0  0  0  0  0  0  0  0  0  0
   24.0970   12.5140   23.4740 O   0  0  0  0  0  0  0  0  0  0  0  0
   21.0840   12.2800   22.6070 H   0  0  0  0  0  0  0  0  0  0  0  0
   23.1810   12.7080   21.3260 C   0  0  0  0  0  0  0  0  0  0  0  0
   22.0300   12.7780   20.5600 C   0  0  0  0  0  0  0  0  0  0  0  0
   22.1780   13.0030   19.2030 C   0  0  0  0  0  0  0  0  0  0  0  0
   23.4410   13.1510   18.6630 C   0  0  0  0  0  0  0  0  0  0  0  0
   23.6350   13.3610   17.3500 F   0  0  0  0  0  0  0  0  0  0  0  0
   24.5260   13.0590   19.5060 C   0  0  0  0  0  0  0  0  0  0  0  0
   24.4150   12.8360   20.8250 N   0  0  0  0  0  0  0  0  0  0  0  0
  8  9  1  0
  9 10  1  0
 10 11  1  0
 10 12  2  0
 12 13  1  0
 13 14  1  0
 13  1  1  0
  1  2  2  0
  2  3  1  0
  3 21  1  0
 21 22  1  0
 22 23  2  0
 22 25  1  0
 25 26  2  0
 26 27  1  0
 27 28  2  0
 28 29  1  0
 28 30  1  0
 30 31  2  0
  3  4  2  0
  4  5  1  0
  5  6  2  0
  6  7  1  0
 13 15  1  0
 15 16  1  0
 16 17  2  0
 16 18  2  0
 16  9  1  0
  6  1  1  0
 31 25  1  0
 11 19  1  0
 11 20  1  0
 21 24  1  0
M  END
> <meeko>
{"is_sidechain": false}

> <source_group>
BACE1 canonical

> <source_system>
BACE1_verubecestat

> <source_run>
canonical_obabel_seed5519_ex32

> <source_seed>
5519

> <vina_pose_rank>
2

> <vina_affinity_kcal_mol>
-8.5259999999999998

> <vina_rmsd_to_crystal_angstrom>
7.3526999999999996

> <minimizedAffinity>
-8.44939

> <CNNscore>
0.0933530703

> <CNNaffinity>
4.8113880157

> <CNN_VS>
0.4491578341

> <CNNaffinity_variance>
1.0529938936

$$$$
BACE1_verubecestat__canonical_obabel_seed5519_ex32__pose03


 31 33  0  0  0  0  0  0  0  0999 V2000
   24.0500   12.3530   19.9660 C   0  0  0  0  0  0  0  0  0  0  0  0
   23.5800   12.6030   21.2540 C   0  0  0  0  0  0  0  0  0  0  0  0
   22.4650   11.9780   21.7650 C   0  0  0  0  0  0  0  0  0  0  0  0
   21.7460   11.0780   20.9890 C   0  0  0  0  0  0  0  0  0  0  0  0
   22.2000   10.8160   19.7090 C   0  0  0  0  0  0  0  0  0  0  0  0
   23.3390   11.4260   19.2210 C   0  0  0  0  0  0  0  0  0  0  0  0
   23.7800   11.1280   17.9720 F   0  0  0  0  0  0  0  0  0  0  0  0
   27.8250   11.9310   22.7450 C   0  0  0  0  0  0  0  0  0  0  0  0
   27.0630   12.3520   21.5530 N   0  0  0  0  0  0  0  0  0  0  0  0
   26.5840   13.6680   21.3710 C   0  0  0  0  0  0  0  0  0  0  0  0
   27.0170   14.5530   22.3210 N   0  0  0  0  0  0  0  0  0  0  0  0
   25.8210   14.0290   20.3850 N   0  0  0  0  0  0  0  0  0  0  0  0
   25.2880   13.0580   19.4320 C   0  0  0  0  0  0  0  0  0  0  0  0
   24.8840   13.9320   18.2410 C   0  0  0  0  0  0  0  0  0  0  0  0
   26.3910   12.1400   18.9530 C   0  0  0  0  0  0  0  0  0  0  0  0
   27.0300   11.1740   20.2980 S   0  0  0  0  0  0  0  0  0  0  0  0
   28.4090   10.8620   19.9650 O   0  0  0  0  0  0  0  0  0  0  0  0
   26.0770   10.2120   20.7560 O   0  0  0  0  0  0  0  0  0  0  0  0
   26.7370   15.4960   22.2800 H   0  0  0  0  0  0  0  0  0  0  0  0
   27.6100   14.2480   23.0450 H   0  0  0  0  0  0  0  0  0  0  0  0
   22.0970   12.3210   23.0730 N   0  0  0  0  0  0  0  0  0  0  0  0
   22.3660   11.6370   24.2450 C   0  0  0  0  0  0  0  0  0  0  0  0
   22.8730   10.5250   24.3120 O   0  0  0  0  0  0  0  0  0  0  0  0
   21.5830   13.1550   23.1700 H   0  0  0  0  0  0  0  0  0  0  0  0
   22.0260   12.3630   25.4940 C   0  0  0  0  0  0  0  0  0  0  0  0
   20.7160   12.7360   25.7420 C   0  0  0  0  0  0  0  0  0  0  0  0
   20.4570   13.4120   26.9200 C   0  0  0  0  0  0  0  0  0  0  0  0
   21.4880   13.6870   27.7980 C   0  0  0  0  0  0  0  0  0  0  0  0
   21.2860   14.3490   28.9490 F   0  0  0  0  0  0  0  0  0  0  0  0
   22.7590   13.2800   27.4600 C   0  0  0  0  0  0  0  0  0  0  0  0
   23.0430   12.6270   26.3210 N   0  0  0  0  0  0  0  0  0  0  0  0
  8  9  1  0
  9 10  1  0
 10 11  1  0
 10 12  2  0
 12 13  1  0
 13 14  1  0
 13  1  1  0
  1  2  2  0
  2  3  1  0
  3 21  1  0
 21 22  1  0
 22 23  2  0
 22 25  1  0
 25 26  2  0
 26 27  1  0
 27 28  2  0
 28 29  1  0
 28 30  1  0
 30 31  2  0
  3  4  2  0
  4  5  1  0
  5  6  2  0
  6  7  1  0
 13 15  1  0
 15 16  1  0
 16 17  2  0
 16 18  2  0
 16  9  1  0
  6  1  1  0
 31 25  1  0
 11 19  1  0
 11 20  1  0
 21 24  1  0
M  END
> <meeko>
{"is_sidechain": false}

> <source_group>
BACE1 canonical

> <source_system>
BACE1_verubecestat

> <source_run>
canonical_obabel_seed5519_ex32

> <source_seed>
5519

> <vina_pose_rank>
3

> <vina_affinity_kcal_mol>
-8.3729999999999993

> <vina_rmsd_to_crystal_angstrom>
7.0759999999999996

> <minimizedAffinity>
-8.27845

> <CNNscore>
0.0452434123

> <CNNaffinity>
5.2001986504

> <CNN_VS>
0.2352747321

> <CNNaffinity_variance>
0.3314505517

$$$$
BACE1_verubecestat__canonical_obabel_seed5519_ex32__pose04


 31 33  0  0  0  0  0  0  0  0999 V2000
   22.3180   11.6960   20.7950 C   0  0  0  0  0  0  0  0  0  0  0  0
   22.2930   12.0830   22.1340 C   0  0  0  0  0  0  0  0  0  0  0  0
   21.5370   11.4230   23.0770 C   0  0  0  0  0  0  0  0  0  0  0  0
   20.7420   10.3440   22.7120 C   0  0  0  0  0  0  0  0  0  0  0  0
   20.7570    9.9450   21.3880 C   0  0  0  0  0  0  0  0  0  0  0  0
   21.5450   10.5950   20.4590 C   0  0  0  0  0  0  0  0  0  0  0  0
   21.5640   10.1650   19.1710 F   0  0  0  0  0  0  0  0  0  0  0  0
   26.9430   11.4370   21.6230 C   0  0  0  0  0  0  0  0  0  0  0  0
   25.7190   11.8200   20.8930 N   0  0  0  0  0  0  0  0  0  0  0  0
   25.1600   13.1160   20.9550 C   0  0  0  0  0  0  0  0  0  0  0  0
   25.9340   14.0240   21.6260 N   0  0  0  0  0  0  0  0  0  0  0  0
   24.0280   13.4410   20.4090 N   0  0  0  0  0  0  0  0  0  0  0  0
   23.1660   12.4430   19.7780 C   0  0  0  0  0  0  0  0  0  0  0  0
   22.2470   13.2930   18.8960 C   0  0  0  0  0  0  0  0  0  0  0  0
   23.9790   11.5640   18.8530 C   0  0  0  0  0  0  0  0  0  0  0  0
   25.1810   10.6330   19.7680 S   0  0  0  0  0  0  0  0  0  0  0  0
   26.2820   10.3720   18.8590 O   0  0  0  0  0  0  0  0  0  0  0  0
   24.5640    9.6390   20.5900 O   0  0  0  0  0  0  0  0  0  0  0  0
   25.6290   14.9550   21.7220 H   0  0  0  0  0  0  0  0  0  0  0  0
   26.7970   13.7460   22.0120 H   0  0  0  0  0  0  0  0  0  0  0  0
   21.5990   11.9150   24.3880 N   0  0  0  0  0  0  0  0  0  0  0  0
   20.6830   12.7140   25.0480 C   0  0  0  0  0  0  0  0  0  0  0  0
   19.7040   13.2370   24.5320 O   0  0  0  0  0  0  0  0  0  0  0  0
   22.3970   11.6590   24.9050 H   0  0  0  0  0  0  0  0  0  0  0  0
   20.9290   12.8930   26.4990 C   0  0  0  0  0  0  0  0  0  0  0  0
   21.2510   11.8000   27.2860 C   0  0  0  0  0  0  0  0  0  0  0  0
   21.4680   12.0250   28.6340 C   0  0  0  0  0  0  0  0  0  0  0  0
   21.3630   13.3040   29.1440 C   0  0  0  0  0  0  0  0  0  0  0  0
   21.5560   13.5690   30.4480 F   0  0  0  0  0  0  0  0  0  0  0  0
   21.0320   14.3260   28.2830 C   0  0  0  0  0  0  0  0  0  0  0  0
   20.8090   14.1380   26.9720 N   0  0  0  0  0  0  0  0  0  0  0  0
  8  9  1  0
  9 10  1  0
 10 11  1  0
 10 12  2  0
 12 13  1  0
 13 14  1  0
 13  1  1  0
  1  2  2  0
  2  3  1  0
  3 21  1  0
 21 22  1  0
 22 23  2  0
 22 25  1  0
 25 26  2  0
 26 27  1  0
 27 28  2  0
 28 29  1  0
 28 30  1  0
 30 31  2  0
  3  4  2  0
  4  5  1  0
  5  6  2  0
  6  7  1  0
 13 15  1  0
 15 16  1  0
 16 17  2  0
 16 18  2  0
 16  9  1  0
  6  1  1  0
 31 25  1  0
 11 19  1  0
 11 20  1  0
 21 24  1  0
M  END
> <meeko>
{"is_sidechain": false}

> <source_group>
BACE1 canonical

> <source_system>
BACE1_verubecestat

> <source_run>
canonical_obabel_seed5519_ex32

> <source_seed>
5519

> <vina_pose_rank>
4

> <vina_affinity_kcal_mol>
-8.3279999999999994

> <vina_rmsd_to_crystal_angstrom>
7.3617999999999997

> <minimizedAffinity>
-8.30791

> <CNNscore>
0.0860525817

> <CNNaffinity>
5.6402497292

> <CNN_VS>
0.4853580594

> <CNNaffinity_variance>
0.1874228269

$$$$
BACE1_verubecestat__canonical_obabel_seed5519_ex32__pose05


 31 33  0  0  0  0  0  0  0  0999 V2000
   24.2490   11.9650   20.4020 C   0  0  0  0  0  0  0  0  0  0  0  0
   23.8980   11.8390   21.7460 C   0  0  0  0  0  0  0  0  0  0  0  0
   22.6510   12.1810   22.2160 C   0  0  0  0  0  0  0  0  0  0  0  0
   21.6900   12.6940   21.3530 C   0  0  0  0  0  0  0  0  0  0  0  0
   22.0190   12.8220   20.0160 C   0  0  0  0  0  0  0  0  0  0  0  0
   23.2640   12.4450   19.5530 C   0  0  0  0  0  0  0  0  0  0  0  0
   23.5530   12.5540   18.2300 F   0  0  0  0  0  0  0  0  0  0  0  0
   27.0780   15.6370   19.5910 C   0  0  0  0  0  0  0  0  0  0  0  0
   26.7050   14.2120   19.6860 N   0  0  0  0  0  0  0  0  0  0  0  0
   26.3940   13.4200   18.5590 C   0  0  0  0  0  0  0  0  0  0  0  0
   26.6180   14.0460   17.3620 N   0  0  0  0  0  0  0  0  0  0  0  0
   25.9600   12.1990   18.6310 N   0  0  0  0  0  0  0  0  0  0  0  0
   25.6350   11.5750   19.9130 C   0  0  0  0  0  0  0  0  0  0  0  0
   25.6390   10.0810   19.5770 C   0  0  0  0  0  0  0  0  0  0  0  0
   26.7540   11.8090   20.9030 C   0  0  0  0  0  0  0  0  0  0  0  0
   26.9270   13.5400   21.2560 S   0  0  0  0  0  0  0  0  0  0  0  0
   28.3160   13.7520   21.6210 O   0  0  0  0  0  0  0  0  0  0  0  0
   25.8140   14.0400   22.0020 O   0  0  0  0  0  0  0  0  0  0  0  0
   26.4320   13.5740   16.5180 H   0  0  0  0  0  0  0  0  0  0  0  0
   26.9660   14.9670   17.3450 H   0  0  0  0  0  0  0  0  0  0  0  0
   22.4280   12.0090   23.5890 N   0  0  0  0  0  0  0  0  0  0  0  0
   23.1740   12.4990   24.6460 C   0  0  0  0  0  0  0  0  0  0  0  0
   24.2500   13.0730   24.5430 O   0  0  0  0  0  0  0  0  0  0  0  0
   21.6410   11.4700   23.8310 H   0  0  0  0  0  0  0  0  0  0  0  0
   22.5630   12.3230   25.9860 C   0  0  0  0  0  0  0  0  0  0  0  0
   21.4710   11.4880   26.1440 C   0  0  0  0  0  0  0  0  0  0  0  0
   20.9410   11.3620   27.4160 C   0  0  0  0  0  0  0  0  0  0  0  0
   21.5060   12.0550   28.4680 C   0  0  0  0  0  0  0  0  0  0  0  0
   21.0200   11.9720   29.7190 F   0  0  0  0  0  0  0  0  0  0  0  0
   22.5880   12.8670   28.2110 C   0  0  0  0  0  0  0  0  0  0  0  0
   23.1210   13.0130   26.9870 N   0  0  0  0  0  0  0  0  0  0  0  0
  8  9  1  0
  9 10  1  0
 10 11  1  0
 10 12  2  0
 12 13  1  0
 13 14  1  0
 13  1  1  0
  1  2  2  0
  2  3  1  0
  3 21  1  0
 21 22  1  0
 22 23  2  0
 22 25  1  0
 25 26  2  0
 26 27  1  0
 27 28  2  0
 28 29  1  0
 28 30  1  0
 30 31  2  0
  3  4  2  0
  4  5  1  0
  5  6  2  0
  6  7  1  0
 13 15  1  0
 15 16  1  0
 16 17  2  0
 16 18  2  0
 16  9  1  0
  6  1  1  0
 31 25  1  0
 11 19  1  0
 11 20  1  0
 21 24  1  0
M  END
> <meeko>
{"is_sidechain": false}

> <source_group>
BACE1 canonical

> <source_system>
BACE1_verubecestat

> <source_run>
canonical_obabel_seed5519_ex32

> <source_seed>
5519

> <vina_pose_rank>
5

> <vina_affinity_kcal_mol>
-8.1690000000000005

> <vina_rmsd_to_crystal_angstrom>
7.1097000000000001

> <minimizedAffinity>
-8.91810

> <CNNscore>
0.2842937410

> <CNNaffinity>
5.6638908386

> <CNN_VS>
1.6102087498

> <CNNaffinity_variance>
0.5039383769

$$$$
BACE1_verubecestat__canonical_obabel_seed5519_ex32__pose06


 31 33  0  0  0  0  0  0  0  0999 V2000
   25.9790   12.6190   20.4170 C   0  0  0  0  0  0  0  0  0  0  0  0
   25.0730   12.6450   21.4750 C   0  0  0  0  0  0  0  0  0  0  0  0
   24.1900   11.6160   21.7140 C   0  0  0  0  0  0  0  0  0  0  0  0
   24.1590   10.5080   20.8760 C   0  0  0  0  0  0  0  0  0  0  0  0
   25.0540   10.4640   19.8220 C   0  0  0  0  0  0  0  0  0  0  0  0
   25.9560   11.4890   19.6150 C   0  0  0  0  0  0  0  0  0  0  0  0
   26.8430   11.4080   18.5900 F   0  0  0  0  0  0  0  0  0  0  0  0
   28.5120   13.7790   24.2100 C   0  0  0  0  0  0  0  0  0  0  0  0
   28.0720   13.8520   22.8030 N   0  0  0  0  0  0  0  0  0  0  0  0
   27.2030   14.8560   22.3190 C   0  0  0  0  0  0  0  0  0  0  0  0
   26.9280   15.8390   23.2310 N   0  0  0  0  0  0  0  0  0  0  0  0
   26.7210   14.8730   21.1150 N   0  0  0  0  0  0  0  0  0  0  0  0
   26.9440   13.7700   20.1820 C   0  0  0  0  0  0  0  0  0  0  0  0
   26.6370   14.4040   18.8220 C   0  0  0  0  0  0  0  0  0  0  0  0
   28.4080   13.3880   20.1710 C   0  0  0  0  0  0  0  0  0  0  0  0
   28.9050   12.7670   21.7580 S   0  0  0  0  0  0  0  0  0  0  0  0
   30.3230   13.0500   21.8880 O   0  0  0  0  0  0  0  0  0  0  0  0
   28.3100   11.4980   22.0380 O   0  0  0  0  0  0  0  0  0  0  0  0
   26.3320   16.5840   22.9870 H   0  0  0  0  0  0  0  0  0  0  0  0
   27.3270   15.8020   24.1310 H   0  0  0  0  0  0  0  0  0  0  0  0
   23.3300   11.7670   22.8090 N   0  0  0  0  0  0  0  0  0  0  0  0
   22.0590   12.3140   22.8330 C   0  0  0  0  0  0  0  0  0  0  0  0
   21.5210   12.8850   21.8930 O   0  0  0  0  0  0  0  0  0  0  0  0
   23.6740   11.4430   23.6730 H   0  0  0  0  0  0  0  0  0  0  0  0
   21.3180   12.1410   24.1060 C   0  0  0  0  0  0  0  0  0  0  0  0
   20.1090   11.4670   24.1150 C   0  0  0  0  0  0  0  0  0  0  0  0
   19.4600   11.3360   25.3300 C   0  0  0  0  0  0  0  0  0  0  0  0
   20.0260   11.8660   26.4730 C   0  0  0  0  0  0  0  0  0  0  0  0
   19.4280   11.7710   27.6730 F   0  0  0  0  0  0  0  0  0  0  0  0
   21.2300   12.5240   26.3620 C   0  0  0  0  0  0  0  0  0  0  0  0
   21.8800   12.6720   25.1960 N   0  0  0  0  0  0  0  0  0  0  0  0
  8  9  1  0
  9 10  1  0
 10 11  1  0
 10 12  2  0
 12 13  1  0
 13 14  1  0
 13  1  1  0
  1  2  2  0
  2  3  1  0
  3 21  1  0
 21 22  1  0
 22 23  2  0
 22 25  1  0
 25 26  2  0
 26 27  1  0
 27 28  2  0
 28 29  1  0
 28 30  1  0
 30 31  2  0
  3  4  2  0
  4  5  1  0
  5  6  2  0
  6  7  1  0
 13 15  1  0
 15 16  1  0
 16 17  2  0
 16 18  2  0
 16  9  1  0
  6  1  1  0
 31 25  1  0
 11 19  1  0
 11 20  1  0
 21 24  1  0
M  END
> <meeko>
{"is_sidechain": false}

> <source_group>
BACE1 canonical

> <source_system>
BACE1_verubecestat

> <source_run>
canonical_obabel_seed5519_ex32

> <source_seed>
5519

> <vina_pose_rank>
6

> <vina_affinity_kcal_mol>
-7.9980000000000002

> <vina_rmsd_to_crystal_angstrom>
7.5651999999999999

> <minimizedAffinity>
-7.95035

> <CNNscore>
0.0226378702

> <CNNaffinity>
4.4451389313

> <CNN_VS>
0.1006284803

> <CNNaffinity_variance>
0.7312814593

$$$$
BACE1_verubecestat__canonical_obabel_seed5519_ex32__pose07


 31 33  0  0  0  0  0  0  0  0999 V2000
   20.4290   12.5950   26.9300 C   0  0  0  0  0  0  0  0  0  0  0  0
   20.9090   12.6430   25.6220 C   0  0  0  0  0  0  0  0  0  0  0  0
   21.2770   11.5110   24.9310 C   0  0  0  0  0  0  0  0  0  0  0  0
   21.2020   10.2620   25.5360 C   0  0  0  0  0  0  0  0  0  0  0  0
   20.7250   10.1960   26.8330 C   0  0  0  0  0  0  0  0  0  0  0  0
   20.3290   11.3370   27.5020 C   0  0  0  0  0  0  0  0  0  0  0  0
   19.8370   11.2410   28.7640 F   0  0  0  0  0  0  0  0  0  0  0  0
   16.6950   14.7700   25.0640 C   0  0  0  0  0  0  0  0  0  0  0  0
   17.7890   14.5480   26.0310 N   0  0  0  0  0  0  0  0  0  0  0  0
   18.9950   15.2820   26.0100 C   0  0  0  0  0  0  0  0  0  0  0  0
   19.0010   16.3170   25.1140 N   0  0  0  0  0  0  0  0  0  0  0  0
   20.0080   15.0280   26.7810 N   0  0  0  0  0  0  0  0  0  0  0  0
   20.0270   13.8640   27.6650 C   0  0  0  0  0  0  0  0  0  0  0  0
   21.1220   14.2190   28.6750 C   0  0  0  0  0  0  0  0  0  0  0  0
   18.7270   13.7750   28.4340 C   0  0  0  0  0  0  0  0  0  0  0  0
   17.3640   13.5030   27.3310 S   0  0  0  0  0  0  0  0  0  0  0  0
   16.1920   14.0710   27.9740 O   0  0  0  0  0  0  0  0  0  0  0  0
   17.4080   12.1980   26.7490 O   0  0  0  0  0  0  0  0  0  0  0  0
   19.7980   16.8880   25.0260 H   0  0  0  0  0  0  0  0  0  0  0  0
   18.2070   16.4910   24.5580 H   0  0  0  0  0  0  0  0  0  0  0  0
   21.7450   11.6970   23.6240 N   0  0  0  0  0  0  0  0  0  0  0  0
   21.2400   11.1690   22.4490 C   0  0  0  0  0  0  0  0  0  0  0  0
   20.3540   10.3270   22.3790 O   0  0  0  0  0  0  0  0  0  0  0  0
   22.5340   12.2790   23.5290 H   0  0  0  0  0  0  0  0  0  0  0  0
   21.8250   11.7210   21.2030 C   0  0  0  0  0  0  0  0  0  0  0  0
   21.8020   13.0860   20.9750 C   0  0  0  0  0  0  0  0  0  0  0  0
   22.3600   13.5470   19.7960 C   0  0  0  0  0  0  0  0  0  0  0  0
   22.9150   12.6520   18.9020 C   0  0  0  0  0  0  0  0  0  0  0  0
   23.4600   13.0510   17.7400 F   0  0  0  0  0  0  0  0  0  0  0  0
   22.8860   11.3120   19.2150 C   0  0  0  0  0  0  0  0  0  0  0  0
   22.3460   10.8340   20.3490 N   0  0  0  0  0  0  0  0  0  0  0  0
  8  9  1  0
  9 10  1  0
 10 11  1  0
 10 12  2  0
 12 13  1  0
 13 14  1  0
 13  1  1  0
  1  2  2  0
  2  3  1  0
  3 21  1  0
 21 22  1  0
 22 23  2  0
 22 25  1  0
 25 26  2  0
 26 27  1  0
 27 28  2  0
 28 29  1  0
 28 30  1  0
 30 31  2  0
  3  4  2  0
  4  5  1  0
  5  6  2  0
  6  7  1  0
 13 15  1  0
 15 16  1  0
 16 17  2  0
 16 18  2  0
 16  9  1  0
  6  1  1  0
 31 25  1  0
 11 19  1  0
 11 20  1  0
 21 24  1  0
M  END
> <meeko>
{"is_sidechain": false}

> <source_group>
BACE1 canonical

> <source_system>
BACE1_verubecestat

> <source_run>
canonical_obabel_seed5519_ex32

> <source_seed>
5519

> <vina_pose_rank>
7

> <vina_affinity_kcal_mol>
-7.9429999999999996

> <vina_rmsd_to_crystal_angstrom>
7.7229999999999999

> <minimizedAffinity>
-8.02323

> <CNNscore>
0.1371372342

> <CNNaffinity>
5.3770632744

> <CNN_VS>
0.7373955846

> <CNNaffinity_variance>
0.2823970616

$$$$
BACE1_verubecestat__canonical_obabel_seed5519_ex32__pose08


 31 33  0  0  0  0  0  0  0  0999 V2000
   24.1460   12.0960   20.6910 C   0  0  0  0  0  0  0  0  0  0  0  0
   24.7570   12.8890   21.6620 C   0  0  0  0  0  0  0  0  0  0  0  0
   26.0830   12.7450   22.0020 C   0  0  0  0  0  0  0  0  0  0  0  0
   26.8640   11.7710   21.3920 C   0  0  0  0  0  0  0  0  0  0  0  0
   26.2750   10.9770   20.4240 C   0  0  0  0  0  0  0  0  0  0  0  0
   24.9520   11.1540   20.0700 C   0  0  0  0  0  0  0  0  0  0  0  0
   24.4060   10.3810   19.0970 F   0  0  0  0  0  0  0  0  0  0  0  0
   21.2130    9.5370   23.3370 C   0  0  0  0  0  0  0  0  0  0  0  0
   21.5950   10.5120   22.2970 N   0  0  0  0  0  0  0  0  0  0  0  0
   21.5970   10.2060   20.9180 C   0  0  0  0  0  0  0  0  0  0  0  0
   21.0690    8.9780   20.6210 N   0  0  0  0  0  0  0  0  0  0  0  0
   22.0320   11.0130   20.0000 N   0  0  0  0  0  0  0  0  0  0  0  0
   22.6790   12.2810   20.3360 C   0  0  0  0  0  0  0  0  0  0  0  0
   22.5840   13.0710   19.0280 C   0  0  0  0  0  0  0  0  0  0  0  0
   21.8590   13.0260   21.3650 C   0  0  0  0  0  0  0  0  0  0  0  0
   21.7890   12.1170   22.8880 S   0  0  0  0  0  0  0  0  0  0  0  0
   20.5450   12.4900   23.5360 O   0  0  0  0  0  0  0  0  0  0  0  0
   23.0590   12.0890   23.5440 O   0  0  0  0  0  0  0  0  0  0  0  0
   21.0270    8.6740   19.6850 H   0  0  0  0  0  0  0  0  0  0  0  0
   20.7320    8.3990   21.3420 H   0  0  0  0  0  0  0  0  0  0  0  0
   26.5730   13.6040   22.9950 N   0  0  0  0  0  0  0  0  0  0  0  0
   26.3250   13.5700   24.3550 C   0  0  0  0  0  0  0  0  0  0  0  0
   25.5120   12.8390   24.9050 O   0  0  0  0  0  0  0  0  0  0  0  0
   27.1700   14.3230   22.6840 H   0  0  0  0  0  0  0  0  0  0  0  0
   27.1580   14.4850   25.1730 C   0  0  0  0  0  0  0  0  0  0  0  0
   26.5960   15.6230   25.7260 C   0  0  0  0  0  0  0  0  0  0  0  0
   27.4190   16.4420   26.4780 C   0  0  0  0  0  0  0  0  0  0  0  0
   28.7470   16.1060   26.6550 C   0  0  0  0  0  0  0  0  0  0  0  0
   29.5870   16.8750   27.3700 F   0  0  0  0  0  0  0  0  0  0  0  0
   29.2160   14.9570   26.0610 C   0  0  0  0  0  0  0  0  0  0  0  0
   28.4420   14.1450   25.3210 N   0  0  0  0  0  0  0  0  0  0  0  0
  8  9  1  0
  9 10  1  0
 10 11  1  0
 10 12  2  0
 12 13  1  0
 13 14  1  0
 13  1  1  0
  1  2  2  0
  2  3  1  0
  3 21  1  0
 21 22  1  0
 22 23  2  0
 22 25  1  0
 25 26  2  0
 26 27  1  0
 27 28  2  0
 28 29  1  0
 28 30  1  0
 30 31  2  0
  3  4  2  0
  4  5  1  0
  5  6  2  0
  6  7  1  0
 13 15  1  0
 15 16  1  0
 16 17  2  0
 16 18  2  0
 16  9  1  0
  6  1  1  0
 31 25  1  0
 11 19  1  0
 11 20  1  0
 21 24  1  0
M  END
> <meeko>
{"is_sidechain": false}

> <source_group>
BACE1 canonical

> <source_system>
BACE1_verubecestat

> <source_run>
canonical_obabel_seed5519_ex32

> <source_seed>
5519

> <vina_pose_rank>
8

> <vina_affinity_kcal_mol>
-7.9100000000000001

> <vina_rmsd_to_crystal_angstrom>
4.7866

> <minimizedAffinity>
-8.78134

> <CNNscore>
0.1387772411

> <CNNaffinity>
5.4139389992

> <CNN_VS>
0.7513315082

> <CNNaffinity_variance>
0.4627369642

$$$$
BACE1_verubecestat__canonical_obabel_seed5519_ex32__pose09


 31 33  0  0  0  0  0  0  0  0999 V2000
   19.2270   12.3160   25.0430 C   0  0  0  0  0  0  0  0  0  0  0  0
   20.1720   12.5960   24.0570 C   0  0  0  0  0  0  0  0  0  0  0  0
   20.6680   11.6260   23.2160 C   0  0  0  0  0  0  0  0  0  0  0  0
   20.2510   10.3060   23.3410 C   0  0  0  0  0  0  0  0  0  0  0  0
   19.3110   10.0110   24.3120 C   0  0  0  0  0  0  0  0  0  0  0  0
   18.7970   11.0000   25.1270 C   0  0  0  0  0  0  0  0  0  0  0  0
   17.8540   10.6890   26.0530 F   0  0  0  0  0  0  0  0  0  0  0  0
   21.2000   12.3550   29.3150 C   0  0  0  0  0  0  0  0  0  0  0  0
   20.3170   12.8220   28.2280 N   0  0  0  0  0  0  0  0  0  0  0  0
   18.9280   12.5650   28.2000 C   0  0  0  0  0  0  0  0  0  0  0  0
   18.4480   11.9790   29.3400 N   0  0  0  0  0  0  0  0  0  0  0  0
   18.1570   12.8730   27.2030 N   0  0  0  0  0  0  0  0  0  0  0  0
   18.6950   13.4110   25.9540 C   0  0  0  0  0  0  0  0  0  0  0  0
   17.4660   14.0470   25.2980 C   0  0  0  0  0  0  0  0  0  0  0  0
   19.6700   14.5300   26.2480 C   0  0  0  0  0  0  0  0  0  0  0  0
   21.0770   13.9170   27.1390 S   0  0  0  0  0  0  0  0  0  0  0  0
   21.5830   15.0260   27.9270 O   0  0  0  0  0  0  0  0  0  0  0  0
   21.8930   13.0740   26.3210 O   0  0  0  0  0  0  0  0  0  0  0  0
   17.4910   11.7600   29.4160 H   0  0  0  0  0  0  0  0  0  0  0  0
   19.0600   11.7760   30.0850 H   0  0  0  0  0  0  0  0  0  0  0  0
   21.6160   12.0390   22.2710 N   0  0  0  0  0  0  0  0  0  0  0  0
   21.7810   11.5930   20.9720 C   0  0  0  0  0  0  0  0  0  0  0  0
   21.1880   10.6460   20.4710 O   0  0  0  0  0  0  0  0  0  0  0  0
   22.2430   12.7370   22.5690 H   0  0  0  0  0  0  0  0  0  0  0  0
   22.7370   12.3750   20.1500 C   0  0  0  0  0  0  0  0  0  0  0  0
   22.3190   12.9460   18.9610 C   0  0  0  0  0  0  0  0  0  0  0  0
   23.2530   13.6630   18.2340 C   0  0  0  0  0  0  0  0  0  0  0  0
   24.5450   13.7890   18.7070 C   0  0  0  0  0  0  0  0  0  0  0  0
   25.4880   14.4670   18.0310 F   0  0  0  0  0  0  0  0  0  0  0  0
   24.8660   13.1790   19.8980 C   0  0  0  0  0  0  0  0  0  0  0  0
   23.9840   12.4720   20.6230 N   0  0  0  0  0  0  0  0  0  0  0  0
  8  9  1  0
  9 10  1  0
 10 11  1  0
 10 12  2  0
 12 13  1  0
 13 14  1  0
 13  1  1  0
  1  2  2  0
  2  3  1  0
  3 21  1  0
 21 22  1  0
 22 23  2  0
 22 25  1  0
 25 26  2  0
 26 27  1  0
 27 28  2  0
 28 29  1  0
 28 30  1  0
 30 31  2  0
  3  4  2  0
  4  5  1  0
  5  6  2  0
  6  7  1  0
 13 15  1  0
 15 16  1  0
 16 17  2  0
 16 18  2  0
 16  9  1  0
  6  1  1  0
 31 25  1  0
 11 19  1  0
 11 20  1  0
 21 24  1  0
M  END
> <meeko>
{"is_sidechain": false}

> <source_group>
BACE1 canonical

> <source_system>
BACE1_verubecestat

> <source_run>
canonical_obabel_seed5519_ex32

> <source_seed>
5519

> <vina_pose_rank>
9

> <vina_affinity_kcal_mol>
-7.9059999999999997

> <vina_rmsd_to_crystal_angstrom>
6.6429

> <minimizedAffinity>
-8.74634

> <CNNscore>
0.0755351707

> <CNNaffinity>
5.1530470848

> <CNN_VS>
0.3892363012

> <CNNaffinity_variance>
0.5720262527

$$$$
BACE1_verubecestat__canonical_obabel_seed5519_ex32__pose10


 31 33  0  0  0  0  0  0  0  0999 V2000
   26.3040   12.2210   21.5220 C   0  0  0  0  0  0  0  0  0  0  0  0
   25.4330   12.2120   22.6110 C   0  0  0  0  0  0  0  0  0  0  0  0
   25.4600   13.1860   23.5830 C   0  0  0  0  0  0  0  0  0  0  0  0
   26.3890   14.2170   23.5210 C   0  0  0  0  0  0  0  0  0  0  0  0
   27.2580   14.2440   22.4450 C   0  0  0  0  0  0  0  0  0  0  0  0
   27.1990   13.2780   21.4600 C   0  0  0  0  0  0  0  0  0  0  0  0
   28.0440   13.3440   20.4000 F   0  0  0  0  0  0  0  0  0  0  0  0
   21.9680   11.3710   19.9020 C   0  0  0  0  0  0  0  0  0  0  0  0
   23.4330   11.2190   19.9890 N   0  0  0  0  0  0  0  0  0  0  0  0
   24.0580   10.1420   20.6560 C   0  0  0  0  0  0  0  0  0  0  0  0
   23.1880    9.1730   21.0820 N   0  0  0  0  0  0  0  0  0  0  0  0
   25.3390   10.0490   20.8360 N   0  0  0  0  0  0  0  0  0  0  0  0
   26.2470   11.1320   20.4620 C   0  0  0  0  0  0  0  0  0  0  0  0
   27.6080   10.4330   20.3990 C   0  0  0  0  0  0  0  0  0  0  0  0
   25.9320   11.6150   19.0640 C   0  0  0  0  0  0  0  0  0  0  0  0
   24.3060   12.3230   18.9970 S   0  0  0  0  0  0  0  0  0  0  0  0
   23.8320   12.1440   17.6360 O   0  0  0  0  0  0  0  0  0  0  0  0
   24.2370   13.5570   19.7150 O   0  0  0  0  0  0  0  0  0  0  0  0
   23.5280    8.3810   21.5580 H   0  0  0  0  0  0  0  0  0  0  0  0
   22.2230    9.2690   20.9120 H   0  0  0  0  0  0  0  0  0  0  0  0
   24.5330   13.0580   24.6260 N   0  0  0  0  0  0  0  0  0  0  0  0
   23.2620   12.5110   24.5810 C   0  0  0  0  0  0  0  0  0  0  0  0
   22.6840   12.1570   23.5620 O   0  0  0  0  0  0  0  0  0  0  0  0
   24.8220   13.4000   25.5020 H   0  0  0  0  0  0  0  0  0  0  0  0
   22.6050   12.3260   25.8970 C   0  0  0  0  0  0  0  0  0  0  0  0
   21.4990   11.5020   26.0080 C   0  0  0  0  0  0  0  0  0  0  0  0
   20.9240   11.3680   27.2600 C   0  0  0  0  0  0  0  0  0  0  0  0
   21.4610   12.0430   28.3390 C   0  0  0  0  0  0  0  0  0  0  0  0
   20.9320   11.9510   29.5710 F   0  0  0  0  0  0  0  0  0  0  0  0
   22.5600   12.8440   28.1280 C   0  0  0  0  0  0  0  0  0  0  0  0
   23.1360   12.9980   26.9240 N   0  0  0  0  0  0  0  0  0  0  0  0
  8  9  1  0
  9 10  1  0
 10 11  1  0
 10 12  2  0
 12 13  1  0
 13 14  1  0
 13  1  1  0
  1  2  2  0
  2  3  1  0
  3 21  1  0
 21 22  1  0
 22 23  2  0
 22 25  1  0
 25 26  2  0
 26 27  1  0
 27 28  2  0
 28 29  1  0
 28 30  1  0
 30 31  2  0
  3  4  2  0
  4  5  1  0
  5  6  2  0
  6  7  1  0
 13 15  1  0
 15 16  1  0
 16 17  2  0
 16 18  2  0
 16  9  1  0
  6  1  1  0
 31 25  1  0
 11 19  1  0
 11 20  1  0
 21 24  1  0
M  END
> <meeko>
{"is_sidechain": false}

> <source_group>
BACE1 canonical

> <source_system>
BACE1_verubecestat

> <source_run>
canonical_obabel_seed5519_ex32

> <source_seed>
5519

> <vina_pose_rank>
10

> <vina_affinity_kcal_mol>
-7.5069999999999997

> <vina_rmsd_to_crystal_angstrom>
6.8680000000000003

> <minimizedAffinity>
-7.76626

> <CNNscore>
0.0597297251

> <CNNaffinity>
4.6773743629

> <CNN_VS>
0.2793782949

> <CNNaffinity_variance>
1.3372834921

$$$$
BACE1_verubecestat__canonical_obabel_seed5519_ex32__pose11


 31 33  0  0  0  0  0  0  0  0999 V2000
   26.3910   12.4260   21.7360 C   0  0  0  0  0  0  0  0  0  0  0  0
   25.0730   12.3160   22.1780 C   0  0  0  0  0  0  0  0  0  0  0  0
   24.6520   12.8490   23.3750 C   0  0  0  0  0  0  0  0  0  0  0  0
   25.5490   13.5070   24.2070 C   0  0  0  0  0  0  0  0  0  0  0  0
   26.8600   13.6290   23.7820 C   0  0  0  0  0  0  0  0  0  0  0  0
   27.2610   13.1170   22.5640 C   0  0  0  0  0  0  0  0  0  0  0  0
   28.5470   13.2750   22.1570 F   0  0  0  0  0  0  0  0  0  0  0  0
   23.7690   13.8140   18.0820 C   0  0  0  0  0  0  0  0  0  0  0  0
   24.8680   13.1050   18.7670 N   0  0  0  0  0  0  0  0  0  0  0  0
   24.8320   11.7220   19.0530 C   0  0  0  0  0  0  0  0  0  0  0  0
   23.7610   11.0690   18.5060 N   0  0  0  0  0  0  0  0  0  0  0  0
   25.7380   11.1060   19.7480 N   0  0  0  0  0  0  0  0  0  0  0  0
   26.8250   11.8280   20.4060 C   0  0  0  0  0  0  0  0  0  0  0  0
   27.8560   10.7280   20.6730 C   0  0  0  0  0  0  0  0  0  0  0  0
   27.4580   12.8050   19.4410 C   0  0  0  0  0  0  0  0  0  0  0  0
   26.2920   14.0530   18.9560 S   0  0  0  0  0  0  0  0  0  0  0  0
   26.6900   14.5000   17.6340 O   0  0  0  0  0  0  0  0  0  0  0  0
   25.9780   14.9300   20.0400 O   0  0  0  0  0  0  0  0  0  0  0  0
   23.6490   10.1010   18.6490 H   0  0  0  0  0  0  0  0  0  0  0  0
   23.1030   11.5670   17.9680 H   0  0  0  0  0  0  0  0  0  0  0  0
   23.3020   12.6660   23.7030 N   0  0  0  0  0  0  0  0  0  0  0  0
   22.7560   11.8030   24.6360 C   0  0  0  0  0  0  0  0  0  0  0  0
   23.3770   10.9460   25.2510 O   0  0  0  0  0  0  0  0  0  0  0  0
   22.6600   13.2240   23.2060 H   0  0  0  0  0  0  0  0  0  0  0  0
   21.3090   11.9920   24.9040 C   0  0  0  0  0  0  0  0  0  0  0  0
   20.4130   10.9810   24.6030 C   0  0  0  0  0  0  0  0  0  0  0  0
   19.0750   11.2120   24.8720 C   0  0  0  0  0  0  0  0  0  0  0  0
   18.6820   12.4160   25.4220 C   0  0  0  0  0  0  0  0  0  0  0  0
   17.3940   12.6890   25.6910 F   0  0  0  0  0  0  0  0  0  0  0  0
   19.6470   13.3630   25.6800 C   0  0  0  0  0  0  0  0  0  0  0  0
   20.9520   13.1700   25.4250 N   0  0  0  0  0  0  0  0  0  0  0  0
  8  9  1  0
  9 10  1  0
 10 11  1  0
 10 12  2  0
 12 13  1  0
 13 14  1  0
 13  1  1  0
  1  2  2  0
  2  3  1  0
  3 21  1  0
 21 22  1  0
 22 23  2  0
 22 25  1  0
 25 26  2  0
 26 27  1  0
 27 28  2  0
 28 29  1  0
 28 30  1  0
 30 31  2  0
  3  4  2  0
  4  5  1  0
  5  6  2  0
  6  7  1  0
 13 15  1  0
 15 16  1  0
 16 17  2  0
 16 18  2  0
 16  9  1  0
  6  1  1  0
 31 25  1  0
 11 19  1  0
 11 20  1  0
 21 24  1  0
M  END
> <meeko>
{"is_sidechain": false}

> <source_group>
BACE1 canonical

> <source_system>
BACE1_verubecestat

> <source_run>
canonical_obabel_seed5519_ex32

> <source_seed>
5519

> <vina_pose_rank>
11

> <vina_affinity_kcal_mol>
-7.4900000000000002

> <vina_rmsd_to_crystal_angstrom>
7.8971999999999998

> <minimizedAffinity>
-7.44824

> <CNNscore>
0.0263567753

> <CNNaffinity>
4.0730643272

> <CNN_VS>
0.1073528379

> <CNNaffinity_variance>
1.4644303322

$$$$
BACE1_verubecestat__canonical_obabel_seed5519_ex32__pose12


 31 33  0  0  0  0  0  0  0  0999 V2000
   18.8700   14.5390   27.0270 C   0  0  0  0  0  0  0  0  0  0  0  0
   19.4540   14.0590   25.8550 C   0  0  0  0  0  0  0  0  0  0  0  0
   20.2700   12.9510   25.8400 C   0  0  0  0  0  0  0  0  0  0  0  0
   20.5610   12.2750   27.0180 C   0  0  0  0  0  0  0  0  0  0  0  0
   19.9880   12.7360   28.1910 C   0  0  0  0  0  0  0  0  0  0  0  0
   19.1450   13.8300   28.1860 C   0  0  0  0  0  0  0  0  0  0  0  0
   18.5720   14.2440   29.3450 F   0  0  0  0  0  0  0  0  0  0  0  0
   14.7190   13.8210   24.9290 C   0  0  0  0  0  0  0  0  0  0  0  0
   15.7500   14.5800   25.6640 N   0  0  0  0  0  0  0  0  0  0  0  0
   16.5870   15.5370   25.0490 C   0  0  0  0  0  0  0  0  0  0  0  0
   16.2570   15.8090   23.7490 N   0  0  0  0  0  0  0  0  0  0  0  0
   17.5680   16.1330   25.6540 N   0  0  0  0  0  0  0  0  0  0  0  0
   17.9710   15.7650   27.0100 C   0  0  0  0  0  0  0  0  0  0  0  0
   18.7830   16.9800   27.4680 C   0  0  0  0  0  0  0  0  0  0  0  0
   16.7560   15.6800   27.9080 C   0  0  0  0  0  0  0  0  0  0  0  0
   15.6710   14.3820   27.3730 S   0  0  0  0  0  0  0  0  0  0  0  0
   14.3330   14.7620   27.7880 O   0  0  0  0  0  0  0  0  0  0  0  0
   16.2440   13.0910   27.5940 O   0  0  0  0  0  0  0  0  0  0  0  0
   16.7820   16.4650   23.2350 H   0  0  0  0  0  0  0  0  0  0  0  0
   15.4940   15.3510   23.3280 H   0  0  0  0  0  0  0  0  0  0  0  0
   20.7940   12.5740   24.5970 N   0  0  0  0  0  0  0  0  0  0  0  0
   20.3970   11.5320   23.7780 C   0  0  0  0  0  0  0  0  0  0  0  0
   19.5820   10.6710   24.0810 O   0  0  0  0  0  0  0  0  0  0  0  0
   21.5410   13.1220   24.2620 H   0  0  0  0  0  0  0  0  0  0  0  0
   21.0070   11.5200   22.4270 C   0  0  0  0  0  0  0  0  0  0  0  0
   21.6410   12.6520   21.9440 C   0  0  0  0  0  0  0  0  0  0  0  0
   22.1910   12.5850   20.6760 C   0  0  0  0  0  0  0  0  0  0  0  0
   22.0970   11.4160   19.9460 C   0  0  0  0  0  0  0  0  0  0  0  0
   22.6070   11.3070   18.7080 F   0  0  0  0  0  0  0  0  0  0  0  0
   21.4410   10.3450   20.5090 C   0  0  0  0  0  0  0  0  0  0  0  0
   20.8920   10.3810   21.7350 N   0  0  0  0  0  0  0  0  0  0  0  0
  8  9  1  0
  9 10  1  0
 10 11  1  0
 10 12  2  0
 12 13  1  0
 13 14  1  0
 13  1  1  0
  1  2  2  0
  2  3  1  0
  3 21  1  0
 21 22  1  0
 22 23  2  0
 22 25  1  0
 25 26  2  0
 26 27  1  0
 27 28  2  0
 28 29  1  0
 28 30  1  0
 30 31  2  0
  3  4  2  0
  4  5  1  0
  5  6  2  0
  6  7  1  0
 13 15  1  0
 15 16  1  0
 16 17  2  0
 16 18  2  0
 16  9  1  0
  6  1  1  0
 31 25  1  0
 11 19  1  0
 11 20  1  0
 21 24  1  0
M  END
> <meeko>
{"is_sidechain": false}

> <source_group>
BACE1 canonical

> <source_system>
BACE1_verubecestat

> <source_run>
canonical_obabel_seed5519_ex32

> <source_seed>
5519

> <vina_pose_rank>
12

> <vina_affinity_kcal_mol>
-7.4660000000000002

> <vina_rmsd_to_crystal_angstrom>
8.7924000000000007

> <minimizedAffinity>
-7.53236

> <CNNscore>
0.1180564165

> <CNNaffinity>
5.0060677528

> <CNN_VS>
0.5909984112

> <CNNaffinity_variance>
0.5119802356

$$$$
BACE1_verubecestat__canonical_obabel_seed5519_ex32__pose13


 31 33  0  0  0  0  0  0  0  0999 V2000
   27.0030   14.0830   21.3700 C   0  0  0  0  0  0  0  0  0  0  0  0
   25.8600   13.7590   22.1000 C   0  0  0  0  0  0  0  0  0  0  0  0
   25.1930   12.5670   21.9340 C   0  0  0  0  0  0  0  0  0  0  0  0
   25.6330   11.6390   20.9980 C   0  0  0  0  0  0  0  0  0  0  0  0
   26.7680   11.9420   20.2660 C   0  0  0  0  0  0  0  0  0  0  0  0
   27.4450   13.1280   20.4670 C   0  0  0  0  0  0  0  0  0  0  0  0
   28.5730   13.3880   19.7560 F   0  0  0  0  0  0  0  0  0  0  0  0
   28.3490   14.8320   25.8170 C   0  0  0  0  0  0  0  0  0  0  0  0
   28.2150   15.1250   24.3760 N   0  0  0  0  0  0  0  0  0  0  0  0
   27.2720   16.0420   23.8610 C   0  0  0  0  0  0  0  0  0  0  0  0
   26.5990   16.7460   24.8240 N   0  0  0  0  0  0  0  0  0  0  0  0
   27.0660   16.2310   22.5940 N   0  0  0  0  0  0  0  0  0  0  0  0
   27.7200   15.4070   21.5790 C   0  0  0  0  0  0  0  0  0  0  0  0
   27.5780   16.2520   20.3090 C   0  0  0  0  0  0  0  0  0  0  0  0
   29.1990   15.2960   21.8740 C   0  0  0  0  0  0  0  0  0  0  0  0
   29.4690   14.4480   23.4100 S   0  0  0  0  0  0  0  0  0  0  0  0
   30.7300   14.9390   23.9380 O   0  0  0  0  0  0  0  0  0  0  0  0
   29.1210   13.0650   23.3180 O   0  0  0  0  0  0  0  0  0  0  0  0
   25.9210   17.4100   24.5640 H   0  0  0  0  0  0  0  0  0  0  0  0
   26.7950   16.5890   25.7760 H   0  0  0  0  0  0  0  0  0  0  0  0
   24.0570   12.3670   22.7280 N   0  0  0  0  0  0  0  0  0  0  0  0
   22.7270   12.5030   22.3720 C   0  0  0  0  0  0  0  0  0  0  0  0
   22.3250   12.9560   21.3080 O   0  0  0  0  0  0  0  0  0  0  0  0
   24.2270   12.0950   23.6590 H   0  0  0  0  0  0  0  0  0  0  0  0
   21.7490   12.0160   23.3760 C   0  0  0  0  0  0  0  0  0  0  0  0
   20.7780   11.1020   23.0070 C   0  0  0  0  0  0  0  0  0  0  0  0
   19.8910   10.6830   23.9830 C   0  0  0  0  0  0  0  0  0  0  0  0
   20.0000   11.1750   25.2690 C   0  0  0  0  0  0  0  0  0  0  0  0
   19.1560   10.8050   26.2470 F   0  0  0  0  0  0  0  0  0  0  0  0
   20.9970   12.0860   25.5380 C   0  0  0  0  0  0  0  0  0  0  0  0
   21.8680   12.5160   24.6100 N   0  0  0  0  0  0  0  0  0  0  0  0
  8  9  1  0
  9 10  1  0
 10 11  1  0
 10 12  2  0
 12 13  1  0
 13 14  1  0
 13  1  1  0
  1  2  2  0
  2  3  1  0
  3 21  1  0
 21 22  1  0
 22 23  2  0
 22 25  1  0
 25 26  2  0
 26 27  1  0
 27 28  2  0
 28 29  1  0
 28 30  1  0
 30 31  2  0
  3  4  2  0
  4  5  1  0
  5  6  2  0
  6  7  1  0
 13 15  1  0
 15 16  1  0
 16 17  2  0
 16 18  2  0
 16  9  1  0
  6  1  1  0
 31 25  1  0
 11 19  1  0
 11 20  1  0
 21 24  1  0
M  END
> <meeko>
{"is_sidechain": false}

> <source_group>
BACE1 canonical

> <source_system>
BACE1_verubecestat

> <source_run>
canonical_obabel_seed5519_ex32

> <source_seed>
5519

> <vina_pose_rank>
13

> <vina_affinity_kcal_mol>
-7.4299999999999997

> <vina_rmsd_to_crystal_angstrom>
7.8876999999999997

> <minimizedAffinity>
-7.36289

> <CNNscore>
0.0243376885

> <CNNaffinity>
4.2485957146

> <CNN_VS>
0.1034009978

> <CNNaffinity_variance>
0.8021969795

$$$$
BACE1_verubecestat__canonical_obabel_seed5519_ex32__pose14


 31 33  0  0  0  0  0  0  0  0999 V2000
   23.1530   12.2800   21.7750 C   0  0  0  0  0  0  0  0  0  0  0  0
   24.1020   12.8510   22.6210 C   0  0  0  0  0  0  0  0  0  0  0  0
   24.0770   12.6690   23.9850 C   0  0  0  0  0  0  0  0  0  0  0  0
   23.0710   11.9130   24.5750 C   0  0  0  0  0  0  0  0  0  0  0  0
   22.1220   11.3360   23.7500 C   0  0  0  0  0  0  0  0  0  0  0  0
   22.1790   11.5010   22.3800 C   0  0  0  0  0  0  0  0  0  0  0  0
   21.2520   10.9000   21.5900 F   0  0  0  0  0  0  0  0  0  0  0  0
   27.3860   11.4470   19.8940 C   0  0  0  0  0  0  0  0  0  0  0  0
   25.9520   11.8000   19.8970 N   0  0  0  0  0  0  0  0  0  0  0  0
   25.4860   13.1280   19.7850 C   0  0  0  0  0  0  0  0  0  0  0  0
   26.4710   14.0420   19.5210 N   0  0  0  0  0  0  0  0  0  0  0  0
   24.2380   13.4670   19.8950 N   0  0  0  0  0  0  0  0  0  0  0  0
   23.2100   12.4980   20.2710 C   0  0  0  0  0  0  0  0  0  0  0  0
   21.9150   13.1810   19.8210 C   0  0  0  0  0  0  0  0  0  0  0  0
   23.3570   11.2390   19.4460 C   0  0  0  0  0  0  0  0  0  0  0  0
   24.9030   10.4390   19.7930 S   0  0  0  0  0  0  0  0  0  0  0  0
   25.2680    9.7050   18.5940 O   0  0  0  0  0  0  0  0  0  0  0  0
   24.9270    9.8860   21.1110 O   0  0  0  0  0  0  0  0  0  0  0  0
   26.2440   14.9950   19.4250 H   0  0  0  0  0  0  0  0  0  0  0  0
   27.4050   13.7460   19.4260 H   0  0  0  0  0  0  0  0  0  0  0  0
   25.0880   13.3000   24.7220 N   0  0  0  0  0  0  0  0  0  0  0  0
   26.4210   13.4550   24.3880 C   0  0  0  0  0  0  0  0  0  0  0  0
   26.9710   12.9380   23.4250 O   0  0  0  0  0  0  0  0  0  0  0  0
   24.8140   13.6820   25.5870 H   0  0  0  0  0  0  0  0  0  0  0  0
   27.1960   14.3540   25.2770 C   0  0  0  0  0  0  0  0  0  0  0  0
   26.5730   15.4330   25.8810 C   0  0  0  0  0  0  0  0  0  0  0  0
   27.3440   16.2410   26.6990 C   0  0  0  0  0  0  0  0  0  0  0  0
   28.6810   15.9510   26.8880 C   0  0  0  0  0  0  0  0  0  0  0  0
   29.4710   16.7110   27.6660 F   0  0  0  0  0  0  0  0  0  0  0  0
   29.2120   14.8590   26.2400 C   0  0  0  0  0  0  0  0  0  0  0  0
   28.4910   14.0610   25.4360 N   0  0  0  0  0  0  0  0  0  0  0  0
  8  9  1  0
  9 10  1  0
 10 11  1  0
 10 12  2  0
 12 13  1  0
 13 14  1  0
 13  1  1  0
  1  2  2  0
  2  3  1  0
  3 21  1  0
 21 22  1  0
 22 23  2  0
 22 25  1  0
 25 26  2  0
 26 27  1  0
 27 28  2  0
 28 29  1  0
 28 30  1  0
 30 31  2  0
  3  4  2  0
  4  5  1  0
  5  6  2  0
  6  7  1  0
 13 15  1  0
 15 16  1  0
 16 17  2  0
 16 18  2  0
 16  9  1  0
  6  1  1  0
 31 25  1  0
 11 19  1  0
 11 20  1  0
 21 24  1  0
M  END
> <meeko>
{"is_sidechain": false}

> <source_group>
BACE1 canonical

> <source_system>
BACE1_verubecestat

> <source_run>
canonical_obabel_seed5519_ex32

> <source_seed>
5519

> <vina_pose_rank>
14

> <vina_affinity_kcal_mol>
-7.4180000000000001

> <vina_rmsd_to_crystal_angstrom>
5.8257000000000003

> <minimizedAffinity>
-7.58030

> <CNNscore>
0.0461348630

> <CNNaffinity>
4.8161811829

> <CNN_VS>
0.2221938521

> <CNNaffinity_variance>
0.4031803906

$$$$
BACE1_verubecestat__canonical_obabel_seed5519_ex32__pose15


 31 33  0  0  0  0  0  0  0  0999 V2000
   22.1920   10.7210   21.9630 C   0  0  0  0  0  0  0  0  0  0  0  0
   21.4830   11.7570   22.5690 C   0  0  0  0  0  0  0  0  0  0  0  0
   21.5010   11.9640   23.9300 C   0  0  0  0  0  0  0  0  0  0  0  0
   22.2230   11.1160   24.7610 C   0  0  0  0  0  0  0  0  0  0  0  0
   22.9350   10.0840   24.1760 C   0  0  0  0  0  0  0  0  0  0  0  0
   22.9340    9.9080   22.8070 C   0  0  0  0  0  0  0  0  0  0  0  0
   23.6650    8.9050   22.2560 F   0  0  0  0  0  0  0  0  0  0  0  0
   24.6350   13.9440   19.5560 C   0  0  0  0  0  0  0  0  0  0  0  0
   23.8030   12.7380   19.7440 N   0  0  0  0  0  0  0  0  0  0  0  0
   22.4130   12.7160   19.4950 C   0  0  0  0  0  0  0  0  0  0  0  0
   21.9320   13.8620   18.9220 N   0  0  0  0  0  0  0  0  0  0  0  0
   21.6490   11.7000   19.7580 N   0  0  0  0  0  0  0  0  0  0  0  0
   22.1540   10.5200   20.4560 C   0  0  0  0  0  0  0  0  0  0  0  0
   21.1080    9.4520   20.1260 C   0  0  0  0  0  0  0  0  0  0  0  0
   23.4590   10.0690   19.8370 C   0  0  0  0  0  0  0  0  0  0  0  0
   24.7130   11.3080   20.0440 S   0  0  0  0  0  0  0  0  0  0  0  0
   25.6400   11.1480   18.9380 O   0  0  0  0  0  0  0  0  0  0  0  0
   25.1080   11.4350   21.4120 O   0  0  0  0  0  0  0  0  0  0  0  0
   20.9740   13.9430   18.7100 H   0  0  0  0  0  0  0  0  0  0  0  0
   22.5450   14.6070   18.7200 H   0  0  0  0  0  0  0  0  0  0  0  0
   20.7430   13.0400   24.4110 N   0  0  0  0  0  0  0  0  0  0  0  0
   19.5060   13.0080   25.0300 C   0  0  0  0  0  0  0  0  0  0  0  0
   18.8010   12.0130   25.1440 O   0  0  0  0  0  0  0  0  0  0  0  0
   21.1420   13.9320   24.2940 H   0  0  0  0  0  0  0  0  0  0  0  0
   19.0580   14.2940   25.6160 C   0  0  0  0  0  0  0  0  0  0  0  0
   17.8730   14.8700   25.1930 C   0  0  0  0  0  0  0  0  0  0  0  0
   17.5040   16.0720   25.7720 C   0  0  0  0  0  0  0  0  0  0  0  0
   18.3090   16.6470   26.7370 C   0  0  0  0  0  0  0  0  0  0  0  0
   17.9960   17.8160   27.3200 F   0  0  0  0  0  0  0  0  0  0  0  0
   19.4720   16.0000   27.0870 C   0  0  0  0  0  0  0  0  0  0  0  0
   19.8600   14.8370   26.5390 N   0  0  0  0  0  0  0  0  0  0  0  0
  8  9  1  0
  9 10  1  0
 10 11  1  0
 10 12  2  0
 12 13  1  0
 13 14  1  0
 13  1  1  0
  1  2  2  0
  2  3  1  0
  3 21  1  0
 21 22  1  0
 22 23  2  0
 22 25  1  0
 25 26  2  0
 26 27  1  0
 27 28  2  0
 28 29  1  0
 28 30  1  0
 30 31  2  0
  3  4  2  0
  4  5  1  0
  5  6  2  0
  6  7  1  0
 13 15  1  0
 15 16  1  0
 16 17  2  0
 16 18  2  0
 16  9  1  0
  6  1  1  0
 31 25  1  0
 11 19  1  0
 11 20  1  0
 21 24  1  0
M  END
> <meeko>
{"is_sidechain": false}

> <source_group>
BACE1 canonical

> <source_system>
BACE1_verubecestat

> <source_run>
canonical_obabel_seed5519_ex32

> <source_seed>
5519

> <vina_pose_rank>
15

> <vina_affinity_kcal_mol>
-7.375

> <vina_rmsd_to_crystal_angstrom>
8.5130999999999997

> <minimizedAffinity>
-7.62301

> <CNNscore>
0.0462402999

> <CNNaffinity>
4.6933069229

> <CNN_VS>
0.2170199156

> <CNNaffinity_variance>
0.7965995669

$$$$
BACE1_verubecestat__canonical_obabel_seed5519_ex32__pose16


 31 33  0  0  0  0  0  0  0  0999 V2000
   17.8210   13.4290   26.0410 C   0  0  0  0  0  0  0  0  0  0  0  0
   18.6610   13.1940   24.9540 C   0  0  0  0  0  0  0  0  0  0  0  0
   19.9610   12.7680   25.1060 C   0  0  0  0  0  0  0  0  0  0  0  0
   20.4940   12.5750   26.3740 C   0  0  0  0  0  0  0  0  0  0  0  0
   19.6730   12.8000   27.4660 C   0  0  0  0  0  0  0  0  0  0  0  0
   18.3620   13.1970   27.2970 C   0  0  0  0  0  0  0  0  0  0  0  0
   17.5690   13.3830   28.3830 F   0  0  0  0  0  0  0  0  0  0  0  0
   17.0990   17.9160   27.2650 C   0  0  0  0  0  0  0  0  0  0  0  0
   16.7450   16.5840   26.7360 N   0  0  0  0  0  0  0  0  0  0  0  0
   16.0260   15.6250   27.4830 C   0  0  0  0  0  0  0  0  0  0  0  0
   15.5560   16.0930   28.6810 N   0  0  0  0  0  0  0  0  0  0  0  0
   15.8010   14.4140   27.0760 N   0  0  0  0  0  0  0  0  0  0  0  0
   16.3880   13.8970   25.8400 C   0  0  0  0  0  0  0  0  0  0  0  0
   15.5110   12.6830   25.5260 C   0  0  0  0  0  0  0  0  0  0  0  0
   16.1900   14.8900   24.7170 C   0  0  0  0  0  0  0  0  0  0  0  0
   17.0600   16.4000   25.0530 S   0  0  0  0  0  0  0  0  0  0  0  0
   16.3400   17.4550   24.3630 O   0  0  0  0  0  0  0  0  0  0  0  0
   18.4770   16.2180   24.9880 O   0  0  0  0  0  0  0  0  0  0  0  0
   15.0420   15.4980   29.2730 H   0  0  0  0  0  0  0  0  0  0  0  0
   15.7310   17.0240   28.9490 H   0  0  0  0  0  0  0  0  0  0  0  0
   20.6980   12.5710   23.9310 N   0  0  0  0  0  0  0  0  0  0  0  0
   20.7150   11.4620   23.1050 C   0  0  0  0  0  0  0  0  0  0  0  0
   20.1660   10.3950   23.3470 O   0  0  0  0  0  0  0  0  0  0  0  0
   21.2790   13.3190   23.6590 H   0  0  0  0  0  0  0  0  0  0  0  0
   21.4370   11.6390   21.8220 C   0  0  0  0  0  0  0  0  0  0  0  0
   22.2000   12.7750   21.6090 C   0  0  0  0  0  0  0  0  0  0  0  0
   22.8500   12.8890   20.3930 C   0  0  0  0  0  0  0  0  0  0  0  0
   22.7260   11.8880   19.4490 C   0  0  0  0  0  0  0  0  0  0  0  0
   23.3320   11.9590   18.2520 F   0  0  0  0  0  0  0  0  0  0  0  0
   21.9410   10.7990   19.7520 C   0  0  0  0  0  0  0  0  0  0  0  0
   21.2920   10.6630   20.9200 N   0  0  0  0  0  0  0  0  0  0  0  0
  8  9  1  0
  9 10  1  0
 10 11  1  0
 10 12  2  0
 12 13  1  0
 13 14  1  0
 13  1  1  0
  1  2  2  0
  2  3  1  0
  3 21  1  0
 21 22  1  0
 22 23  2  0
 22 25  1  0
 25 26  2  0
 26 27  1  0
 27 28  2  0
 28 29  1  0
 28 30  1  0
 30 31  2  0
  3  4  2  0
  4  5  1  0
  5  6  2  0
  6  7  1  0
 13 15  1  0
 15 16  1  0
 16 17  2  0
 16 18  2  0
 16  9  1  0
  6  1  1  0
 31 25  1  0
 11 19  1  0
 11 20  1  0
 21 24  1  0
M  END
> <meeko>
{"is_sidechain": false}

> <source_group>
BACE1 canonical

> <source_system>
BACE1_verubecestat

> <source_run>
canonical_obabel_seed5519_ex32

> <source_seed>
5519

> <vina_pose_rank>
16

> <vina_affinity_kcal_mol>
-7.3099999999999996

> <vina_rmsd_to_crystal_angstrom>
8.3255999999999997

> <minimizedAffinity>
-7.86230

> <CNNscore>
0.3800543547

> <CNNaffinity>
5.3852915764

> <CNN_VS>
2.0467035770

> <CNNaffinity_variance>
0.1610473543

$$$$
BACE1_verubecestat__canonical_obabel_seed5519_ex32__pose17


 31 33  0  0  0  0  0  0  0  0999 V2000
   26.8210   12.4770   20.0350 C   0  0  0  0  0  0  0  0  0  0  0  0
   27.1440   13.3680   19.0120 C   0  0  0  0  0  0  0  0  0  0  0  0
   26.1840   14.0320   18.2830 C   0  0  0  0  0  0  0  0  0  0  0  0
   24.8350   13.8150   18.5350 C   0  0  0  0  0  0  0  0  0  0  0  0
   24.4960   12.9370   19.5490 C   0  0  0  0  0  0  0  0  0  0  0  0
   25.4700   12.3020   20.2930 C   0  0  0  0  0  0  0  0  0  0  0  0
   25.1110   11.4680   21.3020 F   0  0  0  0  0  0  0  0  0  0  0  0
   29.7380   15.3790   22.3200 C   0  0  0  0  0  0  0  0  0  0  0  0
   29.1820   14.0800   21.8930 N   0  0  0  0  0  0  0  0  0  0  0  0
   29.7780   13.2790   20.8930 C   0  0  0  0  0  0  0  0  0  0  0  0
   30.9940   13.7380   20.4650 N   0  0  0  0  0  0  0  0  0  0  0  0
   29.2460   12.1900   20.4290 N   0  0  0  0  0  0  0  0  0  0  0  0
   27.9060   11.7610   20.8240 C   0  0  0  0  0  0  0  0  0  0  0  0
   27.8950   10.2770   20.4450 C   0  0  0  0  0  0  0  0  0  0  0  0
   27.7590   11.8350   22.3280 C   0  0  0  0  0  0  0  0  0  0  0  0
   27.8980   13.5130   22.8900 S   0  0  0  0  0  0  0  0  0  0  0  0
   28.4040   13.4530   24.2490 O   0  0  0  0  0  0  0  0  0  0  0  0
   26.7760   14.3000   22.4830 O   0  0  0  0  0  0  0  0  0  0  0  0
   31.4890   13.2470   19.7690 H   0  0  0  0  0  0  0  0  0  0  0  0
   31.3750   14.5590   20.8530 H   0  0  0  0  0  0  0  0  0  0  0  0
   26.6430   14.8970   17.2810 N   0  0  0  0  0  0  0  0  0  0  0  0
   27.1770   16.1660   17.4230 C   0  0  0  0  0  0  0  0  0  0  0  0
   27.2150   16.8010   18.4680 O   0  0  0  0  0  0  0  0  0  0  0  0
   26.5780   14.5590   16.3590 H   0  0  0  0  0  0  0  0  0  0  0  0
   27.7670   16.7450   16.1920 C   0  0  0  0  0  0  0  0  0  0  0  0
   28.6690   16.0080   15.4450 C   0  0  0  0  0  0  0  0  0  0  0  0
   29.1900   16.5980   14.3070 C   0  0  0  0  0  0  0  0  0  0  0  0
   28.8010   17.8760   13.9550 C   0  0  0  0  0  0  0  0  0  0  0  0
   29.2870   18.4930   12.8640 F   0  0  0  0  0  0  0  0  0  0  0  0
   27.9020   18.5310   14.7650 C   0  0  0  0  0  0  0  0  0  0  0  0
   27.3840   17.9870   15.8780 N   0  0  0  0  0  0  0  0  0  0  0  0
  8  9  1  0
  9 10  1  0
 10 11  1  0
 10 12  2  0
 12 13  1  0
 13 14  1  0
 13  1  1  0
  1  2  2  0
  2  3  1  0
  3 21  1  0
 21 22  1  0
 22 23  2  0
 22 25  1  0
 25 26  2  0
 26 27  1  0
 27 28  2  0
 28 29  1  0
 28 30  1  0
 30 31  2  0
  3  4  2  0
  4  5  1  0
  5  6  2  0
  6  7  1  0
 13 15  1  0
 15 16  1  0
 16 17  2  0
 16 18  2  0
 16  9  1  0
  6  1  1  0
 31 25  1  0
 11 19  1  0
 11 20  1  0
 21 24  1  0
M  END
> <meeko>
{"is_sidechain": false}

> <source_group>
BACE1 canonical

> <source_system>
BACE1_verubecestat

> <source_run>
canonical_obabel_seed5519_ex32

> <source_seed>
5519

> <vina_pose_rank>
17

> <vina_affinity_kcal_mol>
-7.2880000000000003

> <vina_rmsd_to_crystal_angstrom>
8.0213999999999999

> <minimizedAffinity>
-7.19887

> <CNNscore>
0.1977548450

> <CNNaffinity>
5.4836134911

> <CNN_VS>
1.0844111443

> <CNNaffinity_variance>
0.3129039705

$$$$
BACE1_verubecestat__canonical_obabel_seed5519_ex32__pose18


 31 33  0  0  0  0  0  0  0  0999 V2000
   28.0140   13.3120   20.7160 C   0  0  0  0  0  0  0  0  0  0  0  0
   26.7350   12.8530   21.0280 C   0  0  0  0  0  0  0  0  0  0  0  0
   25.6170   13.2580   20.3330 C   0  0  0  0  0  0  0  0  0  0  0  0
   25.7290   14.1720   19.2930 C   0  0  0  0  0  0  0  0  0  0  0  0
   26.9910   14.6360   18.9680 C   0  0  0  0  0  0  0  0  0  0  0  0
   28.1070   14.1960   19.6520 C   0  0  0  0  0  0  0  0  0  0  0  0
   29.3380   14.6430   19.2940 F   0  0  0  0  0  0  0  0  0  0  0  0
   29.6610   16.5050   23.7560 C   0  0  0  0  0  0  0  0  0  0  0  0
   29.5960   15.2020   23.0650 N   0  0  0  0  0  0  0  0  0  0  0  0
   30.4800   14.8360   22.0260 C   0  0  0  0  0  0  0  0  0  0  0  0
   31.4950   15.7310   21.8190 N   0  0  0  0  0  0  0  0  0  0  0  0
   30.3690   13.7430   21.3360 N   0  0  0  0  0  0  0  0  0  0  0  0
   29.2290   12.8430   21.5010 C   0  0  0  0  0  0  0  0  0  0  0  0
   29.7360   11.5330   20.8910 C   0  0  0  0  0  0  0  0  0  0  0  0
   28.9820   12.5810   22.9700 C   0  0  0  0  0  0  0  0  0  0  0  0
   28.5210   14.0780   23.8040 S   0  0  0  0  0  0  0  0  0  0  0  0
   28.9400   13.9280   25.1860 O   0  0  0  0  0  0  0  0  0  0  0  0
   27.2250   14.5290   23.4020 O   0  0  0  0  0  0  0  0  0  0  0  0
   32.1630   15.5630   21.1160 H   0  0  0  0  0  0  0  0  0  0  0  0
   31.5570   16.5420   22.3750 H   0  0  0  0  0  0  0  0  0  0  0  0
   24.3910   12.7240   20.7500 N   0  0  0  0  0  0  0  0  0  0  0  0
   23.5650   11.8440   20.0730 C   0  0  0  0  0  0  0  0  0  0  0  0
   23.7210   11.4830   18.9140 O   0  0  0  0  0  0  0  0  0  0  0  0
   24.0770   13.0110   21.6380 H   0  0  0  0  0  0  0  0  0  0  0  0
   22.4380   11.2970   20.8660 C   0  0  0  0  0  0  0  0  0  0  0  0
   21.9200   12.0240   21.9240 C   0  0  0  0  0  0  0  0  0  0  0  0
   20.8700   11.4650   22.6300 C   0  0  0  0  0  0  0  0  0  0  0  0
   20.3770   10.2270   22.2660 C   0  0  0  0  0  0  0  0  0  0  0  0
   19.3650    9.6410   22.9270 F   0  0  0  0  0  0  0  0  0  0  0  0
   20.9620    9.5780   21.2020 C   0  0  0  0  0  0  0  0  0  0  0  0
   21.9860   10.0930   20.5010 N   0  0  0  0  0  0  0  0  0  0  0  0
  8  9  1  0
  9 10  1  0
 10 11  1  0
 10 12  2  0
 12 13  1  0
 13 14  1  0
 13  1  1  0
  1  2  2  0
  2  3  1  0
  3 21  1  0
 21 22  1  0
 22 23  2  0
 22 25  1  0
 25 26  2  0
 26 27  1  0
 27 28  2  0
 28 29  1  0
 28 30  1  0
 30 31  2  0
  3  4  2  0
  4  5  1  0
  5  6  2  0
  6  7  1  0
 13 15  1  0
 15 16  1  0
 16 17  2  0
 16 18  2  0
 16  9  1  0
  6  1  1  0
 31 25  1  0
 11 19  1  0
 11 20  1  0
 21 24  1  0
M  END
> <meeko>
{"is_sidechain": false}

> <source_group>
BACE1 canonical

> <source_system>
BACE1_verubecestat

> <source_run>
canonical_obabel_seed5519_ex32

> <source_seed>
5519

> <vina_pose_rank>
18

> <vina_affinity_kcal_mol>
-7.2229999999999999

> <vina_rmsd_to_crystal_angstrom>
7.7774999999999999

> <minimizedAffinity>
-7.81109

> <CNNscore>
0.0841635242

> <CNNaffinity>
5.5088424683

> <CNN_VS>
0.4636436105

> <CNNaffinity_variance>
0.1037839428

$$$$
BACE1_verubecestat__canonical_obabel_seed5519_ex32__pose19


 31 33  0  0  0  0  0  0  0  0999 V2000
   27.4040   15.4670   19.7110 C   0  0  0  0  0  0  0  0  0  0  0  0
   26.3130   14.7450   20.1930 C   0  0  0  0  0  0  0  0  0  0  0  0
   25.5460   13.9400   19.3800 C   0  0  0  0  0  0  0  0  0  0  0  0
   25.8280   13.8380   18.0240 C   0  0  0  0  0  0  0  0  0  0  0  0
   26.9090   14.5460   17.5290 C   0  0  0  0  0  0  0  0  0  0  0  0
   27.6890   15.3240   18.3620 C   0  0  0  0  0  0  0  0  0  0  0  0
   28.7620   15.9850   17.8570 F   0  0  0  0  0  0  0  0  0  0  0  0
   28.6160   13.3670   23.7450 C   0  0  0  0  0  0  0  0  0  0  0  0
   28.5740   14.4500   22.7430 N   0  0  0  0  0  0  0  0  0  0  0  0
   27.7470   15.5870   22.8720 C   0  0  0  0  0  0  0  0  0  0  0  0
   27.1020   15.6710   24.0770 N   0  0  0  0  0  0  0  0  0  0  0  0
   27.6160   16.4930   21.9520 N   0  0  0  0  0  0  0  0  0  0  0  0
   28.2340   16.3450   20.6350 C   0  0  0  0  0  0  0  0  0  0  0  0
   28.2300   17.7760   20.0920 C   0  0  0  0  0  0  0  0  0  0  0  0
   29.6810   15.9310   20.7830 C   0  0  0  0  0  0  0  0  0  0  0  0
   29.8000   14.3300   21.5400 S   0  0  0  0  0  0  0  0  0  0  0  0
   31.0770   14.2920   22.2300 O   0  0  0  0  0  0  0  0  0  0  0  0
   29.3260   13.2990   20.6700 O   0  0  0  0  0  0  0  0  0  0  0  0
   26.5020   16.4300   24.2620 H   0  0  0  0  0  0  0  0  0  0  0  0
   27.2390   14.9740   24.7580 H   0  0  0  0  0  0  0  0  0  0  0  0
   24.4770   13.2700   19.9890 N   0  0  0  0  0  0  0  0  0  0  0  0
   23.1760   13.1440   19.5360 C   0  0  0  0  0  0  0  0  0  0  0  0
   22.7090   13.7220   18.5640 O   0  0  0  0  0  0  0  0  0  0  0  0
   24.6770   12.8340   20.8490 H   0  0  0  0  0  0  0  0  0  0  0  0
   22.3290   12.1950   20.3000 C   0  0  0  0  0  0  0  0  0  0  0  0
   21.8190   12.5630   21.5330 C   0  0  0  0  0  0  0  0  0  0  0  0
   21.0370   11.6390   22.2030 C   0  0  0  0  0  0  0  0  0  0  0  0
   20.7910   10.4040   21.6330 C   0  0  0  0  0  0  0  0  0  0  0  0
   20.0450    9.4720   22.2500 F   0  0  0  0  0  0  0  0  0  0  0  0
   21.3470   10.1290   20.4050 C   0  0  0  0  0  0  0  0  0  0  0  0
   22.1150   11.0030   19.7340 N   0  0  0  0  0  0  0  0  0  0  0  0
  8  9  1  0
  9 10  1  0
 10 11  1  0
 10 12  2  0
 12 13  1  0
 13 14  1  0
 13  1  1  0
  1  2  2  0
  2  3  1  0
  3 21  1  0
 21 22  1  0
 22 23  2  0
 22 25  1  0
 25 26  2  0
 26 27  1  0
 27 28  2  0
 28 29  1  0
 28 30  1  0
 30 31  2  0
  3  4  2  0
  4  5  1  0
  5  6  2  0
  6  7  1  0
 13 15  1  0
 15 16  1  0
 16 17  2  0
 16 18  2  0
 16  9  1  0
  6  1  1  0
 31 25  1  0
 11 19  1  0
 11 20  1  0
 21 24  1  0
M  END
> <meeko>
{"is_sidechain": false}

> <source_group>
BACE1 canonical

> <source_system>
BACE1_verubecestat

> <source_run>
canonical_obabel_seed5519_ex32

> <source_seed>
5519

> <vina_pose_rank>
19

> <vina_affinity_kcal_mol>
-7.2210000000000001

> <vina_rmsd_to_crystal_angstrom>
7.9763999999999999

> <minimizedAffinity>
-7.43000

> <CNNscore>
0.0618668646

> <CNNaffinity>
4.7725939751

> <CNN_VS>
0.2952654362

> <CNNaffinity_variance>
0.4955269396

$$$$
BACE1_verubecestat__canonical_obabel_seed5519_ex32__pose20


 31 33  0  0  0  0  0  0  0  0999 V2000
   27.7550   13.0240   22.4740 C   0  0  0  0  0  0  0  0  0  0  0  0
   26.4190   12.6880   22.6900 C   0  0  0  0  0  0  0  0  0  0  0  0
   25.7330   13.0850   23.8150 C   0  0  0  0  0  0  0  0  0  0  0  0
   26.3690   13.8290   24.8010 C   0  0  0  0  0  0  0  0  0  0  0  0
   27.6940   14.1750   24.6020 C   0  0  0  0  0  0  0  0  0  0  0  0
   28.3610   13.7960   23.4530 C   0  0  0  0  0  0  0  0  0  0  0  0
   29.6520   14.1730   23.2680 F   0  0  0  0  0  0  0  0  0  0  0  0
   25.4400   13.9700   18.4870 C   0  0  0  0  0  0  0  0  0  0  0  0
   26.5550   13.4780   19.3200 N   0  0  0  0  0  0  0  0  0  0  0  0
   26.7660   12.1080   19.5920 C   0  0  0  0  0  0  0  0  0  0  0  0
   25.9390   11.2690   18.8940 N   0  0  0  0  0  0  0  0  0  0  0  0
   27.6730   11.6660   20.4080 N   0  0  0  0  0  0  0  0  0  0  0  0
   28.4850   12.5720   21.2180 C   0  0  0  0  0  0  0  0  0  0  0  0
   29.6730   11.6970   21.6250 C   0  0  0  0  0  0  0  0  0  0  0  0
   29.0310   13.6900   20.3580 C   0  0  0  0  0  0  0  0  0  0  0  0
   27.7120   14.6890   19.7160 S   0  0  0  0  0  0  0  0  0  0  0  0
   28.1900   15.2520   18.4660 O   0  0  0  0  0  0  0  0  0  0  0  0
   27.0750   15.4470   20.7470 O   0  0  0  0  0  0  0  0  0  0  0  0
   26.0100   10.2950   19.0160 H   0  0  0  0  0  0  0  0  0  0  0  0
   25.2740   11.6400   18.2700 H   0  0  0  0  0  0  0  0  0  0  0  0
   24.3960   12.6790   23.9110 N   0  0  0  0  0  0  0  0  0  0  0  0
   23.4650   12.5460   22.8960 C   0  0  0  0  0  0  0  0  0  0  0  0
   23.6350   12.8950   21.7350 O   0  0  0  0  0  0  0  0  0  0  0  0
   24.0780   12.4590   24.8170 H   0  0  0  0  0  0  0  0  0  0  0  0
   22.1930   11.8920   23.2850 C   0  0  0  0  0  0  0  0  0  0  0  0
   21.5730   11.0110   22.4150 C   0  0  0  0  0  0  0  0  0  0  0  0
   20.3870   10.4310   22.8290 C   0  0  0  0  0  0  0  0  0  0  0  0
   19.8680   10.7380   24.0720 C   0  0  0  0  0  0  0  0  0  0  0  0
   18.7150   10.2070   24.5130 F   0  0  0  0  0  0  0  0  0  0  0  0
   20.5550   11.6300   24.8640 C   0  0  0  0  0  0  0  0  0  0  0  0
   21.7050   12.2130   24.4880 N   0  0  0  0  0  0  0  0  0  0  0  0
  8  9  1  0
  9 10  1  0
 10 11  1  0
 10 12  2  0
 12 13  1  0
 13 14  1  0
 13  1  1  0
  1  2  2  0
  2  3  1  0
  3 21  1  0
 21 22  1  0
 22 23  2  0
 22 25  1  0
 25 26  2  0
 26 27  1  0
 27 28  2  0
 28 29  1  0
 28 30  1  0
 30 31  2  0
  3  4  2  0
  4  5  1  0
  5  6  2  0
  6  7  1  0
 13 15  1  0
 15 16  1  0
 16 17  2  0
 16 18  2  0
 16  9  1  0
  6  1  1  0
 31 25  1  0
 11 19  1  0
 11 20  1  0
 21 24  1  0
M  END
> <meeko>
{"is_sidechain": false}

> <source_group>
BACE1 canonical

> <source_system>
BACE1_verubecestat

> <source_run>
canonical_obabel_seed5519_ex32

> <source_seed>
5519

> <vina_pose_rank>
20

> <vina_affinity_kcal_mol>
-7.0640000000000001

> <vina_rmsd_to_crystal_angstrom>
7.8345000000000002

> <minimizedAffinity>
-7.27752

> <CNNscore>
0.0206095427

> <CNNaffinity>
4.2902207375

> <CNN_VS>
0.0884194896

> <CNNaffinity_variance>
1.0160017014

$$$$
