BACE1_verubecestat__alternate_476_seed2207_ex32__pose01
     RDKit          3D

 45 47  0  0  0  0  0  0  0  0999 V2000
   27.6390   13.7780   24.5090 C   0  0  0  0  0  0  0  0  0  0  0  0
   26.9550   13.8880   23.2060 N   0  0  0  0  0  0  0  0  0  0  0  0
   25.8550   14.7460   22.9840 C   0  0  0  0  0  0  0  0  0  0  0  0
   25.5750   15.5740   24.0370 N   0  0  0  0  0  0  0  0  0  0  0  0
   25.1740   14.7760   21.8800 N   0  0  0  0  0  0  0  0  0  0  0  0
   25.4210   13.8220   20.7990 C   0  0  2  0  0  0  0  0  0  0  0  0
   24.7760   14.5020   19.5880 C   0  0  0  0  0  0  0  0  0  0  0  0
   24.7270   12.4910   21.0430 C   0  0  0  0  0  0  0  0  0  0  0  0
   24.0340   12.2470   22.2280 C   0  0  0  0  0  0  0  0  0  0  0  0
   23.3990   11.0520   22.4760 C   0  0  0  0  0  0  0  0  0  0  0  0
   22.7360   10.9370   23.7050 N   0  0  0  0  0  0  0  0  0  0  0  0
   23.2280   11.1940   24.9720 C   0  0  0  0  0  0  0  0  0  0  0  0
   24.3960   11.4490   25.2360 O   0  0  0  0  0  0  0  0  0  0  0  0
   22.2180   11.1830   26.0580 C   0  0  0  0  0  0  0  0  0  0  0  0
   20.9210   10.7800   25.7910 C   0  0  0  0  0  0  0  0  0  0  0  0
   20.0190   10.7910   26.8410 C   0  0  0  0  0  0  0  0  0  0  0  0
   20.4310   11.1920   28.0980 C   0  0  0  0  0  0  0  0  0  0  0  0
   19.5890   11.2280   29.1450 F   0  0  0  0  0  0  0  0  0  0  0  0
   21.7410   11.5810   28.2630 C   0  0  0  0  0  0  0  0  0  0  0  0
   22.6370   11.5860   27.2620 N   0  0  0  0  0  0  0  0  0  0  0  0
   23.4110   10.0380   21.5260 C   0  0  0  0  0  0  0  0  0  0  0  0
   24.0970   10.2610   20.3460 C   0  0  0  0  0  0  0  0  0  0  0  0
   24.7570   11.4540   20.1240 C   0  0  0  0  0  0  0  0  0  0  0  0
   25.4480   11.6370   18.9690 F   0  0  0  0  0  0  0  0  0  0  0  0
   26.9040   13.7290   20.5170 C   0  0  0  0  0  0  0  0  0  0  0  0
   27.7700   13.0790   21.9240 S   0  0  0  0  0  0  0  0  0  0  0  0
   29.1180   13.6160   21.8640 O   0  0  0  0  0  0  0  0  0  0  0  0
   27.4640   11.7000   22.1400 O   0  0  0  0  0  0  0  0  0  0  0  0
   26.9049   13.8961   25.3196 H   0  0  0  0  0  0  0  0  0  0  0  0
   28.1184   12.7912   24.5893 H   0  0  0  0  0  0  0  0  0  0  0  0
   28.4036   14.5647   24.5893 H   0  0  0  0  0  0  0  0  0  0  0  0
   24.8250   16.2090   23.9780 H   0  0  0  0  0  0  0  0  0  0  0  0
   26.1240   15.5360   24.8540 H   0  0  0  0  0  0  0  0  0  0  0  0
   24.0571   15.2599   19.9328 H   0  0  0  0  0  0  0  0  0  0  0  0
   25.5554   14.9854   18.9807 H   0  0  0  0  0  0  0  0  0  0  0  0
   24.2521   13.7492   18.9807 H   0  0  0  0  0  0  0  0  0  0  0  0
   23.9936   13.0378   22.9915 H   0  0  0  0  0  0  0  0  0  0  0  0
   21.8000   10.6340   23.6610 H   0  0  0  0  0  0  0  0  0  0  0  0
   20.6183   10.4628   24.7821 H   0  0  0  0  0  0  0  0  0  0  0  0
   18.9766   10.4813   26.6754 H   0  0  0  0  0  0  0  0  0  0  0  0
   22.0699   11.9031   29.2620 H   0  0  0  0  0  0  0  0  0  0  0  0
   22.8903    9.0861   21.7071 H   0  0  0  0  0  0  0  0  0  0  0  0
   24.1173    9.4778   19.5739 H   0  0  0  0  0  0  0  0  0  0  0  0
   27.0668   13.0658   19.6546 H   0  0  0  0  0  0  0  0  0  0  0  0
   27.2870   14.7372   20.3004 H   0  0  0  0  0  0  0  0  0  0  0  0
  1  2  1  0
  2  3  1  0
  3  4  1  0
  3  5  2  0
  5  6  1  0
  6  7  1  6
  6  8  1  0
  8  9  2  0
  9 10  1  0
 10 11  1  0
 11 12  1  0
 12 13  2  0
 12 14  1  0
 14 15  2  0
 15 16  1  0
 16 17  2  0
 17 18  1  0
 17 19  1  0
 19 20  2  0
 10 21  2  0
 21 22  1  0
 22 23  2  0
 23 24  1  0
  6 25  1  0
 25 26  1  0
 26 27  2  0
 26 28  2  0
 26  2  1  0
 23  8  1  0
 20 14  1  0
  1 29  1  0
  1 30  1  0
  1 31  1  0
  4 32  1  0
  4 33  1  0
  7 34  1  0
  7 35  1  0
  7 36  1  0
  9 37  1  0
 11 38  1  0
 15 39  1  0
 16 40  1  0
 19 41  1  0
 21 42  1  0
 22 43  1  0
 25 44  1  0
 25 45  1  0
M  END
>  <meeko>  (1)
{"is_sidechain": false}

>  <source_group>  (1)
BACE1-476

>  <source_system>  (1)
BACE1_verubecestat

>  <source_run>  (1)
alternate_476_seed2207_ex32

>  <source_seed>  (1)
2207

>  <vina_pose_rank>  (1)
1

>  <vina_affinity_kcal_mol>  (1)
-9.1820000000000004

>  <vina_rmsd_to_crystal_angstrom>  (1)
7.1181000000000001

$$$$
BACE1_verubecestat__alternate_476_seed2207_ex32__pose02
     RDKit          3D

 45 47  0  0  0  0  0  0  0  0999 V2000
   28.5940   13.0780   23.9440 C   0  0  0  0  0  0  0  0  0  0  0  0
   27.6990   13.2630   22.7840 N   0  0  0  0  0  0  0  0  0  0  0  0
   26.8470   14.3800   22.6400 C   0  0  0  0  0  0  0  0  0  0  0  0
   27.0340   15.3480   23.5900 N   0  0  0  0  0  0  0  0  0  0  0  0
   25.9780   14.5060   21.6850 N   0  0  0  0  0  0  0  0  0  0  0  0
   25.7210   13.4260   20.7330 C   0  0  2  0  0  0  0  0  0  0  0  0
   25.0350   14.1500   19.5710 C   0  0  0  0  0  0  0  0  0  0  0  0
   24.7660   12.3850   21.2950 C   0  0  0  0  0  0  0  0  0  0  0  0
   24.2920   12.4750   22.6030 C   0  0  0  0  0  0  0  0  0  0  0  0
   23.4290   11.5460   23.1390 C   0  0  0  0  0  0  0  0  0  0  0  0
   23.0270   11.7540   24.4650 N   0  0  0  0  0  0  0  0  0  0  0  0
   22.0890   12.6510   24.9460 C   0  0  0  0  0  0  0  0  0  0  0  0
   21.5390   13.5180   24.2800 O   0  0  0  0  0  0  0  0  0  0  0  0
   21.7310   12.4860   26.3750 C   0  0  0  0  0  0  0  0  0  0  0  0
   20.4020   12.3660   26.7450 C   0  0  0  0  0  0  0  0  0  0  0  0
   20.1240   12.2180   28.0920 C   0  0  0  0  0  0  0  0  0  0  0  0
   21.1580   12.1900   29.0090 C   0  0  0  0  0  0  0  0  0  0  0  0
   20.9360   12.0570   30.3270 F   0  0  0  0  0  0  0  0  0  0  0  0
   22.4460   12.3230   28.5440 C   0  0  0  0  0  0  0  0  0  0  0  0
   22.7470   12.4750   27.2440 N   0  0  0  0  0  0  0  0  0  0  0  0
   22.9770   10.4800   22.3710 C   0  0  0  0  0  0  0  0  0  0  0  0
   23.4400   10.3730   21.0720 C   0  0  0  0  0  0  0  0  0  0  0  0
   24.3300   11.2950   20.5570 C   0  0  0  0  0  0  0  0  0  0  0  0
   24.7920   11.1510   19.2890 F   0  0  0  0  0  0  0  0  0  0  0  0
   27.0280   12.8780   20.2040 C   0  0  0  0  0  0  0  0  0  0  0  0
   27.9710   12.1350   21.5120 S   0  0  0  0  0  0  0  0  0  0  0  0
   29.3670   12.2470   21.1300 O   0  0  0  0  0  0  0  0  0  0  0  0
   27.3600   10.9320   21.9850 O   0  0  0  0  0  0  0  0  0  0  0  0
   28.0184   13.1970   24.8738 H   0  0  0  0  0  0  0  0  0  0  0  0
   29.0333   12.0701   23.9111 H   0  0  0  0  0  0  0  0  0  0  0  0
   29.3969   13.8292   23.9111 H   0  0  0  0  0  0  0  0  0  0  0  0
   26.4870   16.1660   23.5730 H   0  0  0  0  0  0  0  0  0  0  0  0
   27.7160   15.2270   24.2890 H   0  0  0  0  0  0  0  0  0  0  0  0
   24.3295   14.8946   19.9682 H   0  0  0  0  0  0  0  0  0  0  0  0
   25.7933   14.6555   18.9550 H   0  0  0  0  0  0  0  0  0  0  0  0
   24.4894   13.4200   18.9550 H   0  0  0  0  0  0  0  0  0  0  0  0
   24.6192   13.3183   23.2290 H   0  0  0  0  0  0  0  0  0  0  0  0
   23.4680   11.1900   25.1410 H   0  0  0  0  0  0  0  0  0  0  0  0
   19.5971   12.3876   25.9955 H   0  0  0  0  0  0  0  0  0  0  0  0
   19.0824   12.1228   28.4326 H   0  0  0  0  0  0  0  0  0  0  0  0
   23.2697   12.3039   29.2728 H   0  0  0  0  0  0  0  0  0  0  0  0
   22.2721    9.7432   22.7836 H   0  0  0  0  0  0  0  0  0  0  0  0
   23.0944    9.5416   20.4401 H   0  0  0  0  0  0  0  0  0  0  0  0
   26.8172   12.1201   19.4351 H   0  0  0  0  0  0  0  0  0  0  0  0
   27.6107   13.7058   19.7736 H   0  0  0  0  0  0  0  0  0  0  0  0
  1  2  1  0
  2  3  1  0
  3  4  1  0
  3  5  2  0
  5  6  1  0
  6  7  1  6
  6  8  1  0
  8  9  2  0
  9 10  1  0
 10 11  1  0
 11 12  1  0
 12 13  2  0
 12 14  1  0
 14 15  2  0
 15 16  1  0
 16 17  2  0
 17 18  1  0
 17 19  1  0
 19 20  2  0
 10 21  2  0
 21 22  1  0
 22 23  2  0
 23 24  1  0
  6 25  1  0
 25 26  1  0
 26 27  2  0
 26 28  2  0
 26  2  1  0
 23  8  1  0
 20 14  1  0
  1 29  1  0
  1 30  1  0
  1 31  1  0
  4 32  1  0
  4 33  1  0
  7 34  1  0
  7 35  1  0
  7 36  1  0
  9 37  1  0
 11 38  1  0
 15 39  1  0
 16 40  1  0
 19 41  1  0
 21 42  1  0
 22 43  1  0
 25 44  1  0
 25 45  1  0
M  END
>  <meeko>  (2)
{"is_sidechain": false}

>  <source_group>  (2)
BACE1-476

>  <source_system>  (2)
BACE1_verubecestat

>  <source_run>  (2)
alternate_476_seed2207_ex32

>  <source_seed>  (2)
2207

>  <vina_pose_rank>  (2)
2

>  <vina_affinity_kcal_mol>  (2)
-8.7089999999999996

>  <vina_rmsd_to_crystal_angstrom>  (2)
7.4482999999999997

$$$$
BACE1_verubecestat__alternate_476_seed2207_ex32__pose03
     RDKit          3D

 45 47  0  0  0  0  0  0  0  0999 V2000
   23.1050   13.5340   20.2110 C   0  0  0  0  0  0  0  0  0  0  0  0
   24.4950   13.1700   20.5480 N   0  0  0  0  0  0  0  0  0  0  0  0
   24.8970   11.8460   20.8340 C   0  0  0  0  0  0  0  0  0  0  0  0
   23.9190   10.9110   20.6230 N   0  0  0  0  0  0  0  0  0  0  0  0
   26.0870   11.5240   21.2370 N   0  0  0  0  0  0  0  0  0  0  0  0
   27.0930   12.5380   21.5500 C   0  0  2  0  0  0  0  0  0  0  0  0
   28.4030   11.7470   21.5070 C   0  0  0  0  0  0  0  0  0  0  0  0
   26.9110   13.1110   22.9470 C   0  0  0  0  0  0  0  0  0  0  0  0
   25.8330   12.7320   23.7460 C   0  0  0  0  0  0  0  0  0  0  0  0
   25.6420   13.2350   25.0120 C   0  0  0  0  0  0  0  0  0  0  0  0
   24.5200   12.7700   25.7100 N   0  0  0  0  0  0  0  0  0  0  0  0
   23.1890   12.8430   25.3390 C   0  0  0  0  0  0  0  0  0  0  0  0
   22.7600   13.4580   24.3720 O   0  0  0  0  0  0  0  0  0  0  0  0
   22.2510   12.0720   26.1910 C   0  0  0  0  0  0  0  0  0  0  0  0
   21.0790   11.5720   25.6500 C   0  0  0  0  0  0  0  0  0  0  0  0
   20.2400   10.8610   26.4900 C   0  0  0  0  0  0  0  0  0  0  0  0
   20.5890   10.6730   27.8130 C   0  0  0  0  0  0  0  0  0  0  0  0
   19.8020    9.9980   28.6690 F   0  0  0  0  0  0  0  0  0  0  0  0
   21.7740   11.2140   28.2600 C   0  0  0  0  0  0  0  0  0  0  0  0
   22.6050   11.9130   27.4700 N   0  0  0  0  0  0  0  0  0  0  0  0
   26.5480   14.1380   25.5540 C   0  0  0  0  0  0  0  0  0  0  0  0
   27.6220   14.5280   24.7750 C   0  0  0  0  0  0  0  0  0  0  0  0
   27.7840   14.0390   23.4930 C   0  0  0  0  0  0  0  0  0  0  0  0
   28.8310   14.4600   22.7380 F   0  0  0  0  0  0  0  0  0  0  0  0
   27.1580   13.5650   20.4410 C   0  0  0  0  0  0  0  0  0  0  0  0
   25.6240   14.4490   20.3140 S   0  0  0  0  0  0  0  0  0  0  0  0
   25.5060   14.8780   18.9320 O   0  0  0  0  0  0  0  0  0  0  0  0
   25.4120   15.3020   21.4410 O   0  0  0  0  0  0  0  0  0  0  0  0
   22.5306   13.6844   21.1370 H   0  0  0  0  0  0  0  0  0  0  0  0
   23.1017   14.4633   19.6224 H   0  0  0  0  0  0  0  0  0  0  0  0
   22.6467   12.7256   19.6224 H   0  0  0  0  0  0  0  0  0  0  0  0
   24.1030    9.9590   20.7940 H   0  0  0  0  0  0  0  0  0  0  0  0
   23.0320   11.1910   20.3000 H   0  0  0  0  0  0  0  0  0  0  0  0
   28.7417   11.5425   22.5334 H   0  0  0  0  0  0  0  0  0  0  0  0
   28.2400   10.7962   20.9784 H   0  0  0  0  0  0  0  0  0  0  0  0
   29.1685   12.3339   20.9784 H   0  0  0  0  0  0  0  0  0  0  0  0
   25.1092   12.0046   23.3497 H   0  0  0  0  0  0  0  0  0  0  0  0
   24.7020   12.3350   26.5750 H   0  0  0  0  0  0  0  0  0  0  0  0
   20.8242   11.7338   24.5922 H   0  0  0  0  0  0  0  0  0  0  0  0
   19.2968   10.4463   26.1047 H   0  0  0  0  0  0  0  0  0  0  0  0
   22.0529   11.0666   29.3138 H   0  0  0  0  0  0  0  0  0  0  0  0
   26.4150   14.5312   26.5727 H   0  0  0  0  0  0  0  0  0  0  0  0
   28.3576   15.2375   25.1818 H   0  0  0  0  0  0  0  0  0  0  0  0
   27.9685   14.2771   20.6554 H   0  0  0  0  0  0  0  0  0  0  0  0
   27.3473   13.0466   19.4895 H   0  0  0  0  0  0  0  0  0  0  0  0
  1  2  1  0
  2  3  1  0
  3  4  1  0
  3  5  2  0
  5  6  1  0
  6  7  1  1
  6  8  1  0
  8  9  2  0
  9 10  1  0
 10 11  1  0
 11 12  1  0
 12 13  2  0
 12 14  1  0
 14 15  2  0
 15 16  1  0
 16 17  2  0
 17 18  1  0
 17 19  1  0
 19 20  2  0
 10 21  2  0
 21 22  1  0
 22 23  2  0
 23 24  1  0
  6 25  1  0
 25 26  1  0
 26 27  2  0
 26 28  2  0
 26  2  1  0
 23  8  1  0
 20 14  1  0
  1 29  1  0
  1 30  1  0
  1 31  1  0
  4 32  1  0
  4 33  1  0
  7 34  1  0
  7 35  1  0
  7 36  1  0
  9 37  1  0
 11 38  1  0
 15 39  1  0
 16 40  1  0
 19 41  1  0
 21 42  1  0
 22 43  1  0
 25 44  1  0
 25 45  1  0
M  END
>  <meeko>  (3)
{"is_sidechain": false}

>  <source_group>  (3)
BACE1-476

>  <source_system>  (3)
BACE1_verubecestat

>  <source_run>  (3)
alternate_476_seed2207_ex32

>  <source_seed>  (3)
2207

>  <vina_pose_rank>  (3)
3

>  <vina_affinity_kcal_mol>  (3)
-8.5540000000000003

>  <vina_rmsd_to_crystal_angstrom>  (3)
7.5450999999999997

$$$$
BACE1_verubecestat__alternate_476_seed2207_ex32__pose04
     RDKit          3D

 45 47  0  0  0  0  0  0  0  0999 V2000
   23.3920   10.4220   24.3300 C   0  0  0  0  0  0  0  0  0  0  0  0
   23.7230   11.2800   23.1750 N   0  0  0  0  0  0  0  0  0  0  0  0
   23.4990   10.8900   21.8360 C   0  0  0  0  0  0  0  0  0  0  0  0
   22.8110    9.7130   21.7090 N   0  0  0  0  0  0  0  0  0  0  0  0
   23.8820   11.5830   20.8090 N   0  0  0  0  0  0  0  0  0  0  0  0
   24.6980   12.7870   20.9560 C   0  0  2  0  0  0  0  0  0  0  0  0
   24.5020   13.5000   19.6150 C   0  0  0  0  0  0  0  0  0  0  0  0
   26.1730   12.4600   21.1270 C   0  0  0  0  0  0  0  0  0  0  0  0
   27.0310   13.3320   21.7940 C   0  0  0  0  0  0  0  0  0  0  0  0
   28.3710   13.0640   21.9610 C   0  0  0  0  0  0  0  0  0  0  0  0
   29.1220   14.0220   22.6540 N   0  0  0  0  0  0  0  0  0  0  0  0
   29.3570   14.1080   24.0140 C   0  0  0  0  0  0  0  0  0  0  0  0
   28.8230   13.4100   24.8670 O   0  0  0  0  0  0  0  0  0  0  0  0
   30.3670   15.1150   24.4200 C   0  0  0  0  0  0  0  0  0  0  0  0
   29.9810   16.2240   25.1540 C   0  0  0  0  0  0  0  0  0  0  0  0
   30.9650   17.1330   25.5040 C   0  0  0  0  0  0  0  0  0  0  0  0
   32.2740   16.9100   25.1230 C   0  0  0  0  0  0  0  0  0  0  0  0
   33.2600   17.7690   25.4320 F   0  0  0  0  0  0  0  0  0  0  0  0
   32.5580   15.7810   24.3890 C   0  0  0  0  0  0  0  0  0  0  0  0
   31.6250   14.8840   24.0300 N   0  0  0  0  0  0  0  0  0  0  0  0
   28.9160   11.8800   21.4790 C   0  0  0  0  0  0  0  0  0  0  0  0
   28.0800   11.0040   20.8110 C   0  0  0  0  0  0  0  0  0  0  0  0
   26.7440   11.3020   20.6230 C   0  0  0  0  0  0  0  0  0  0  0  0
   25.9510   10.4380   19.9370 F   0  0  0  0  0  0  0  0  0  0  0  0
   24.1120   13.6840   22.0240 C   0  0  0  0  0  0  0  0  0  0  0  0
   24.1640   12.8870   23.6090 S   0  0  0  0  0  0  0  0  0  0  0  0
   23.0680   13.4380   24.3860 O   0  0  0  0  0  0  0  0  0  0  0  0
   25.5040   12.7560   24.0900 O   0  0  0  0  0  0  0  0  0  0  0  0
   23.6018   10.9659   25.2628 H   0  0  0  0  0  0  0  0  0  0  0  0
   22.3258   10.1537   24.2939 H   0  0  0  0  0  0  0  0  0  0  0  0
   24.0017    9.5072   24.2939 H   0  0  0  0  0  0  0  0  0  0  0  0
   22.6060    9.3570   20.8140 H   0  0  0  0  0  0  0  0  0  0  0  0
   22.5200    9.2220   22.5110 H   0  0  0  0  0  0  0  0  0  0  0  0
   24.2144   14.5464   19.7947 H   0  0  0  0  0  0  0  0  0  0  0  0
   25.4415   13.4709   19.0435 H   0  0  0  0  0  0  0  0  0  0  0  0
   23.7094   12.9948   19.0435 H   0  0  0  0  0  0  0  0  0  0  0  0
   26.6229   14.2685   22.2019 H   0  0  0  0  0  0  0  0  0  0  0  0
   29.5360   14.7240   22.1010 H   0  0  0  0  0  0  0  0  0  0  0  0
   28.9321   16.3770   25.4479 H   0  0  0  0  0  0  0  0  0  0  0  0
   30.7050   18.0307   26.0841 H   0  0  0  0  0  0  0  0  0  0  0  0
   33.5993   15.6047   24.0815 H   0  0  0  0  0  0  0  0  0  0  0  0
   29.9810   11.6465   21.6245 H   0  0  0  0  0  0  0  0  0  0  0  0
   28.4842   10.0570   20.4240 H   0  0  0  0  0  0  0  0  0  0  0  0
   24.6920   14.6176   22.0699 H   0  0  0  0  0  0  0  0  0  0  0  0
   23.0635   13.8987   21.7699 H   0  0  0  0  0  0  0  0  0  0  0  0
  1  2  1  0
  2  3  1  0
  3  4  1  0
  3  5  2  0
  5  6  1  0
  6  7  1  6
  6  8  1  0
  8  9  2  0
  9 10  1  0
 10 11  1  0
 11 12  1  0
 12 13  2  0
 12 14  1  0
 14 15  2  0
 15 16  1  0
 16 17  2  0
 17 18  1  0
 17 19  1  0
 19 20  2  0
 10 21  2  0
 21 22  1  0
 22 23  2  0
 23 24  1  0
  6 25  1  0
 25 26  1  0
 26 27  2  0
 26 28  2  0
 26  2  1  0
 23  8  1  0
 20 14  1  0
  1 29  1  0
  1 30  1  0
  1 31  1  0
  4 32  1  0
  4 33  1  0
  7 34  1  0
  7 35  1  0
  7 36  1  0
  9 37  1  0
 11 38  1  0
 15 39  1  0
 16 40  1  0
 19 41  1  0
 21 42  1  0
 22 43  1  0
 25 44  1  0
 25 45  1  0
M  END
>  <meeko>  (4)
{"is_sidechain": false}

>  <source_group>  (4)
BACE1-476

>  <source_system>  (4)
BACE1_verubecestat

>  <source_run>  (4)
alternate_476_seed2207_ex32

>  <source_seed>  (4)
2207

>  <vina_pose_rank>  (4)
4

>  <vina_affinity_kcal_mol>  (4)
-8.3680000000000003

>  <vina_rmsd_to_crystal_angstrom>  (4)
5.2865000000000002

$$$$
BACE1_verubecestat__alternate_476_seed2207_ex32__pose05
     RDKit          3D

 45 47  0  0  0  0  0  0  0  0999 V2000
   17.0330   14.4640   26.4140 C   0  0  0  0  0  0  0  0  0  0  0  0
   17.8430   13.3110   26.8540 N   0  0  0  0  0  0  0  0  0  0  0  0
   18.0230   12.9710   28.2130 C   0  0  0  0  0  0  0  0  0  0  0  0
   17.2590   13.7090   29.0760 N   0  0  0  0  0  0  0  0  0  0  0  0
   18.8170   12.0300   28.6220 N   0  0  0  0  0  0  0  0  0  0  0  0
   19.6980   11.3130   27.7010 C   0  0  2  0  0  0  0  0  0  0  0  0
   20.0580   10.0480   28.4850 C   0  0  0  0  0  0  0  0  0  0  0  0
   20.9720   12.0900   27.4090 C   0  0  0  0  0  0  0  0  0  0  0  0
   21.6070   11.9930   26.1720 C   0  0  0  0  0  0  0  0  0  0  0  0
   22.7630   12.6820   25.8820 C   0  0  0  0  0  0  0  0  0  0  0  0
   23.2980   12.4980   24.6000 N   0  0  0  0  0  0  0  0  0  0  0  0
   23.1460   13.3020   23.4840 C   0  0  0  0  0  0  0  0  0  0  0  0
   22.3920   14.2640   23.4070 O   0  0  0  0  0  0  0  0  0  0  0  0
   24.0090   12.9540   22.3300 C   0  0  0  0  0  0  0  0  0  0  0  0
   23.4920   12.9830   21.0470 C   0  0  0  0  0  0  0  0  0  0  0  0
   24.3420   12.6470   20.0070 C   0  0  0  0  0  0  0  0  0  0  0  0
   25.6530   12.3030   20.2740 C   0  0  0  0  0  0  0  0  0  0  0  0
   26.5120   11.9610   19.2990 F   0  0  0  0  0  0  0  0  0  0  0  0
   26.0730   12.2980   21.5850 C   0  0  0  0  0  0  0  0  0  0  0  0
   25.2710   12.6140   22.6150 N   0  0  0  0  0  0  0  0  0  0  0  0
   23.3320   13.5290   26.8240 C   0  0  0  0  0  0  0  0  0  0  0  0
   22.7180   13.6350   28.0590 C   0  0  0  0  0  0  0  0  0  0  0  0
   21.5760   12.9130   28.3470 C   0  0  0  0  0  0  0  0  0  0  0  0
   21.0090   13.0120   29.5770 F   0  0  0  0  0  0  0  0  0  0  0  0
   18.9230   10.8720   26.4790 C   0  0  0  0  0  0  0  0  0  0  0  0
   18.3350   12.2780   25.5680 S   0  0  0  0  0  0  0  0  0  0  0  0
   17.1320   11.8490   24.8770 O   0  0  0  0  0  0  0  0  0  0  0  0
   19.4080   12.9900   24.9480 O   0  0  0  0  0  0  0  0  0  0  0  0
   16.6541   15.0033   27.2947 H   0  0  0  0  0  0  0  0  0  0  0  0
   17.6556   15.1402   25.8097 H   0  0  0  0  0  0  0  0  0  0  0  0
   16.1857   14.1076   25.8097 H   0  0  0  0  0  0  0  0  0  0  0  0
   17.3150   13.5450   30.0460 H   0  0  0  0  0  0  0  0  0  0  0  0
   16.6540   14.4030   28.7280 H   0  0  0  0  0  0  0  0  0  0  0  0
   19.9989   10.2558   29.5636 H   0  0  0  0  0  0  0  0  0  0  0  0
   19.3530    9.2439   28.2273 H   0  0  0  0  0  0  0  0  0  0  0  0
   21.0807    9.7355   28.2273 H   0  0  0  0  0  0  0  0  0  0  0  0
   21.1690   11.3430   25.4003 H   0  0  0  0  0  0  0  0  0  0  0  0
   23.8530   11.6940   24.4780 H   0  0  0  0  0  0  0  0  0  0  0  0
   22.4447   13.2626   20.8602 H   0  0  0  0  0  0  0  0  0  0  0  0
   23.9742   12.6540   18.9703 H   0  0  0  0  0  0  0  0  0  0  0  0
   27.1160   12.0218   21.7994 H   0  0  0  0  0  0  0  0  0  0  0  0
   24.2444   14.0990   26.5947 H   0  0  0  0  0  0  0  0  0  0  0  0
   23.1447   14.3029   28.8218 H   0  0  0  0  0  0  0  0  0  0  0  0
   19.5796   10.2715   25.8323 H   0  0  0  0  0  0  0  0  0  0  0  0
   18.0586   10.2748   26.8048 H   0  0  0  0  0  0  0  0  0  0  0  0
  1  2  1  0
  2  3  1  0
  3  4  1  0
  3  5  2  0
  5  6  1  0
  6  7  1  1
  6  8  1  0
  8  9  2  0
  9 10  1  0
 10 11  1  0
 11 12  1  0
 12 13  2  0
 12 14  1  0
 14 15  2  0
 15 16  1  0
 16 17  2  0
 17 18  1  0
 17 19  1  0
 19 20  2  0
 10 21  2  0
 21 22  1  0
 22 23  2  0
 23 24  1  0
  6 25  1  0
 25 26  1  0
 26 27  2  0
 26 28  2  0
 26  2  1  0
 23  8  1  0
 20 14  1  0
  1 29  1  0
  1 30  1  0
  1 31  1  0
  4 32  1  0
  4 33  1  0
  7 34  1  0
  7 35  1  0
  7 36  1  0
  9 37  1  0
 11 38  1  0
 15 39  1  0
 16 40  1  0
 19 41  1  0
 21 42  1  0
 22 43  1  0
 25 44  1  0
 25 45  1  0
M  END
>  <meeko>  (5)
{"is_sidechain": false}

>  <source_group>  (5)
BACE1-476

>  <source_system>  (5)
BACE1_verubecestat

>  <source_run>  (5)
alternate_476_seed2207_ex32

>  <source_seed>  (5)
2207

>  <vina_pose_rank>  (5)
5

>  <vina_affinity_kcal_mol>  (5)
-8.2970000000000006

>  <vina_rmsd_to_crystal_angstrom>  (5)
6.8373999999999997

$$$$
BACE1_verubecestat__alternate_476_seed2207_ex32__pose06
     RDKit          3D

 45 47  0  0  0  0  0  0  0  0999 V2000
   23.3240   13.5460   19.9190 C   0  0  0  0  0  0  0  0  0  0  0  0
   24.6790   13.1690   20.3680 N   0  0  0  0  0  0  0  0  0  0  0  0
   25.0700   11.8310   20.5980 C   0  0  0  0  0  0  0  0  0  0  0  0
   24.1330   10.9060   20.2240 N   0  0  0  0  0  0  0  0  0  0  0  0
   26.2190   11.4900   21.0950 N   0  0  0  0  0  0  0  0  0  0  0  0
   27.1730   12.4870   21.5780 C   0  0  2  0  0  0  0  0  0  0  0  0
   28.4930   11.7120   21.6110 C   0  0  0  0  0  0  0  0  0  0  0  0
   26.8440   12.9560   22.9870 C   0  0  0  0  0  0  0  0  0  0  0  0
   25.5930   12.7150   23.5520 C   0  0  0  0  0  0  0  0  0  0  0  0
   25.2660   13.1300   24.8230 C   0  0  0  0  0  0  0  0  0  0  0  0
   23.9760   12.8220   25.2720 N   0  0  0  0  0  0  0  0  0  0  0  0
   22.7650   13.1300   24.6780 C   0  0  0  0  0  0  0  0  0  0  0  0
   22.6240   13.8530   23.7000 O   0  0  0  0  0  0  0  0  0  0  0  0
   21.5780   12.4820   25.2860 C   0  0  0  0  0  0  0  0  0  0  0  0
   21.7180   11.2880   25.9730 C   0  0  0  0  0  0  0  0  0  0  0  0
   20.5760   10.7270   26.5190 C   0  0  0  0  0  0  0  0  0  0  0  0
   19.3590   11.3620   26.3690 C   0  0  0  0  0  0  0  0  0  0  0  0
   18.2230   10.8510   26.8740 F   0  0  0  0  0  0  0  0  0  0  0  0
   19.3200   12.5440   25.6640 C   0  0  0  0  0  0  0  0  0  0  0  0
   20.4090   13.1090   25.1180 N   0  0  0  0  0  0  0  0  0  0  0  0
   26.2000   13.7960   25.6070 C   0  0  0  0  0  0  0  0  0  0  0  0
   27.4470   14.0460   25.0620 C   0  0  0  0  0  0  0  0  0  0  0  0
   27.7490   13.6530   23.7730 C   0  0  0  0  0  0  0  0  0  0  0  0
   28.9700   13.9370   23.2510 F   0  0  0  0  0  0  0  0  0  0  0  0
   27.3330   13.5910   20.5570 C   0  0  0  0  0  0  0  0  0  0  0  0
   25.8060   14.4700   20.3390 S   0  0  0  0  0  0  0  0  0  0  0  0
   25.8210   14.9970   18.9860 O   0  0  0  0  0  0  0  0  0  0  0  0
   25.4700   15.2390   21.4970 O   0  0  0  0  0  0  0  0  0  0  0  0
   22.6836   13.7242   20.7955 H   0  0  0  0  0  0  0  0  0  0  0  0
   23.3802   14.4626   19.3135 H   0  0  0  0  0  0  0  0  0  0  0  0
   22.8987   12.7321   19.3135 H   0  0  0  0  0  0  0  0  0  0  0  0
   24.3130    9.9460   20.3450 H   0  0  0  0  0  0  0  0  0  0  0  0
   23.2780   11.2010   19.8330 H   0  0  0  0  0  0  0  0  0  0  0  0
   28.7898   11.5377   22.6558 H   0  0  0  0  0  0  0  0  0  0  0  0
   28.3640   10.7462   21.1005 H   0  0  0  0  0  0  0  0  0  0  0  0
   29.2735   12.2953   21.1005 H   0  0  0  0  0  0  0  0  0  0  0  0
   24.8397   12.1736   22.9609 H   0  0  0  0  0  0  0  0  0  0  0  0
   23.9240   12.3220   26.1190 H   0  0  0  0  0  0  0  0  0  0  0  0
   22.6996   10.8034   26.0809 H   0  0  0  0  0  0  0  0  0  0  0  0
   20.6380    9.7776   27.0710 H   0  0  0  0  0  0  0  0  0  0  0  0
   18.3507   13.0496   25.5422 H   0  0  0  0  0  0  0  0  0  0  0  0
   25.9553   14.1151   26.6308 H   0  0  0  0  0  0  0  0  0  0  0  0
   28.2080   14.5647   25.6635 H   0  0  0  0  0  0  0  0  0  0  0  0
   28.1073   14.2922   20.9017 H   0  0  0  0  0  0  0  0  0  0  0  0
   27.6241   13.1438   19.5951 H   0  0  0  0  0  0  0  0  0  0  0  0
  1  2  1  0
  2  3  1  0
  3  4  1  0
  3  5  2  0
  5  6  1  0
  6  7  1  1
  6  8  1  0
  8  9  2  0
  9 10  1  0
 10 11  1  0
 11 12  1  0
 12 13  2  0
 12 14  1  0
 14 15  2  0
 15 16  1  0
 16 17  2  0
 17 18  1  0
 17 19  1  0
 19 20  2  0
 10 21  2  0
 21 22  1  0
 22 23  2  0
 23 24  1  0
  6 25  1  0
 25 26  1  0
 26 27  2  0
 26 28  2  0
 26  2  1  0
 23  8  1  0
 20 14  1  0
  1 29  1  0
  1 30  1  0
  1 31  1  0
  4 32  1  0
  4 33  1  0
  7 34  1  0
  7 35  1  0
  7 36  1  0
  9 37  1  0
 11 38  1  0
 15 39  1  0
 16 40  1  0
 19 41  1  0
 21 42  1  0
 22 43  1  0
 25 44  1  0
 25 45  1  0
M  END
>  <meeko>  (6)
{"is_sidechain": false}

>  <source_group>  (6)
BACE1-476

>  <source_system>  (6)
BACE1_verubecestat

>  <source_run>  (6)
alternate_476_seed2207_ex32

>  <source_seed>  (6)
2207

>  <vina_pose_rank>  (6)
6

>  <vina_affinity_kcal_mol>  (6)
-8.1530000000000005

>  <vina_rmsd_to_crystal_angstrom>  (6)
7.7742000000000004

$$$$
BACE1_verubecestat__alternate_476_seed2207_ex32__pose07
     RDKit          3D

 45 47  0  0  0  0  0  0  0  0999 V2000
   28.8720   16.9750   24.9200 C   0  0  0  0  0  0  0  0  0  0  0  0
   28.6880   15.7020   24.1950 N   0  0  0  0  0  0  0  0  0  0  0  0
   28.9880   15.5460   22.8230 C   0  0  0  0  0  0  0  0  0  0  0  0
   29.6050   16.6330   22.2630 N   0  0  0  0  0  0  0  0  0  0  0  0
   28.7320   14.4700   22.1460 N   0  0  0  0  0  0  0  0  0  0  0  0
   27.9880   13.3540   22.7290 C   0  0  2  0  0  0  0  0  0  0  0  0
   28.3340   12.1880   21.7980 C   0  0  0  0  0  0  0  0  0  0  0  0
   26.4860   13.5870   22.6880 C   0  0  0  0  0  0  0  0  0  0  0  0
   25.6430   13.0120   23.6380 C   0  0  0  0  0  0  0  0  0  0  0  0
   24.2800   13.2030   23.6240 C   0  0  0  0  0  0  0  0  0  0  0  0
   23.5470   12.5710   24.6370 N   0  0  0  0  0  0  0  0  0  0  0  0
   23.2880   13.0260   25.9180 C   0  0  0  0  0  0  0  0  0  0  0  0
   23.7820   14.0250   26.4240 O   0  0  0  0  0  0  0  0  0  0  0  0
   22.3040   12.2260   26.6870 C   0  0  0  0  0  0  0  0  0  0  0  0
   21.1330   11.8040   26.0810 C   0  0  0  0  0  0  0  0  0  0  0  0
   20.2490   11.0620   26.8460 C   0  0  0  0  0  0  0  0  0  0  0  0
   20.5560   10.7680   28.1600 C   0  0  0  0  0  0  0  0  0  0  0  0
   19.7250   10.0600   28.9440 F   0  0  0  0  0  0  0  0  0  0  0  0
   21.7430   11.2370   28.6750 C   0  0  0  0  0  0  0  0  0  0  0  0
   22.6180   11.9640   27.9600 N   0  0  0  0  0  0  0  0  0  0  0  0
   23.6920   14.0080   22.6560 C   0  0  0  0  0  0  0  0  0  0  0  0
   24.5140   14.5830   21.7030 C   0  0  0  0  0  0  0  0  0  0  0  0
   25.8760   14.3570   21.7100 C   0  0  0  0  0  0  0  0  0  0  0  0
   26.6560   14.9100   20.7460 F   0  0  0  0  0  0  0  0  0  0  0  0
   28.5470   13.0140   24.0920 C   0  0  0  0  0  0  0  0  0  0  0  0
   28.3220   14.3670   25.2190 S   0  0  0  0  0  0  0  0  0  0  0  0
   29.3880   14.2720   26.1990 O   0  0  0  0  0  0  0  0  0  0  0  0
   26.9430   14.5560   25.5460 O   0  0  0  0  0  0  0  0  0  0  0  0
   28.8448   16.7871   26.0035 H   0  0  0  0  0  0  0  0  0  0  0  0
   29.8430   17.4147   24.6483 H   0  0  0  0  0  0  0  0  0  0  0  0
   28.0652   17.6716   24.6483 H   0  0  0  0  0  0  0  0  0  0  0  0
   29.8550   16.6200   21.3110 H   0  0  0  0  0  0  0  0  0  0  0  0
   29.8000   17.4260   22.8130 H   0  0  0  0  0  0  0  0  0  0  0  0
   28.5962   11.3045   22.3987 H   0  0  0  0  0  0  0  0  0  0  0  0
   27.4661   11.9555   21.1634 H   0  0  0  0  0  0  0  0  0  0  0  0
   29.1882   12.4665   21.1634 H   0  0  0  0  0  0  0  0  0  0  0  0
   26.0827   12.3835   24.4265 H   0  0  0  0  0  0  0  0  0  0  0  0
   23.1670   11.6920   24.4080 H   0  0  0  0  0  0  0  0  0  0  0  0
   20.9131   12.0489   25.0314 H   0  0  0  0  0  0  0  0  0  0  0  0
   19.3043   10.7075   26.4081 H   0  0  0  0  0  0  0  0  0  0  0  0
   21.9871   11.0056   29.7223 H   0  0  0  0  0  0  0  0  0  0  0  0
   22.6060   14.1828   22.6476 H   0  0  0  0  0  0  0  0  0  0  0  0
   24.0759   15.2297   20.9285 H   0  0  0  0  0  0  0  0  0  0  0  0
   28.0274   12.1273   24.4842 H   0  0  0  0  0  0  0  0  0  0  0  0
   29.6238   12.8128   23.9920 H   0  0  0  0  0  0  0  0  0  0  0  0
  1  2  1  0
  2  3  1  0
  3  4  1  0
  3  5  2  0
  5  6  1  0
  6  7  1  6
  6  8  1  0
  8  9  2  0
  9 10  1  0
 10 11  1  0
 11 12  1  0
 12 13  2  0
 12 14  1  0
 14 15  2  0
 15 16  1  0
 16 17  2  0
 17 18  1  0
 17 19  1  0
 19 20  2  0
 10 21  2  0
 21 22  1  0
 22 23  2  0
 23 24  1  0
  6 25  1  0
 25 26  1  0
 26 27  2  0
 26 28  2  0
 26  2  1  0
 23  8  1  0
 20 14  1  0
  1 29  1  0
  1 30  1  0
  1 31  1  0
  4 32  1  0
  4 33  1  0
  7 34  1  0
  7 35  1  0
  7 36  1  0
  9 37  1  0
 11 38  1  0
 15 39  1  0
 16 40  1  0
 19 41  1  0
 21 42  1  0
 22 43  1  0
 25 44  1  0
 25 45  1  0
M  END
>  <meeko>  (7)
{"is_sidechain": false}

>  <source_group>  (7)
BACE1-476

>  <source_system>  (7)
BACE1_verubecestat

>  <source_run>  (7)
alternate_476_seed2207_ex32

>  <source_seed>  (7)
2207

>  <vina_pose_rank>  (7)
7

>  <vina_affinity_kcal_mol>  (7)
-8.1319999999999997

>  <vina_rmsd_to_crystal_angstrom>  (7)
8.1972000000000005

$$$$
BACE1_verubecestat__alternate_476_seed2207_ex32__pose08
     RDKit          3D

 45 47  0  0  0  0  0  0  0  0999 V2000
   25.9060   16.2550   20.9360 C   0  0  0  0  0  0  0  0  0  0  0  0
   26.4020   14.8650   20.9500 N   0  0  0  0  0  0  0  0  0  0  0  0
   26.6740   14.1320   19.7730 C   0  0  0  0  0  0  0  0  0  0  0  0
   26.5830   14.8720   18.6240 N   0  0  0  0  0  0  0  0  0  0  0  0
   27.0050   12.8780   19.7640 N   0  0  0  0  0  0  0  0  0  0  0  0
   27.0060   12.0750   20.9860 C   0  0  2  0  0  0  0  0  0  0  0  0
   27.8800   10.8760   20.6070 C   0  0  0  0  0  0  0  0  0  0  0  0
   25.6150   11.5750   21.3420 C   0  0  0  0  0  0  0  0  0  0  0  0
   25.1100   11.7100   22.6340 C   0  0  0  0  0  0  0  0  0  0  0  0
   23.8560   11.2650   22.9850 C   0  0  0  0  0  0  0  0  0  0  0  0
   23.4690   11.4640   24.3170 N   0  0  0  0  0  0  0  0  0  0  0  0
   22.6580   12.4590   24.8340 C   0  0  0  0  0  0  0  0  0  0  0  0
   22.2420   13.4250   24.2080 O   0  0  0  0  0  0  0  0  0  0  0  0
   22.2610   12.2790   26.2520 C   0  0  0  0  0  0  0  0  0  0  0  0
   21.7100   11.0800   26.6680 C   0  0  0  0  0  0  0  0  0  0  0  0
   21.3560   10.9670   28.0010 C   0  0  0  0  0  0  0  0  0  0  0  0
   21.5620   12.0300   28.8590 C   0  0  0  0  0  0  0  0  0  0  0  0
   21.2260   11.9700   30.1590 F   0  0  0  0  0  0  0  0  0  0  0  0
   22.1120   13.1840   28.3500 C   0  0  0  0  0  0  0  0  0  0  0  0
   22.4600   13.3250   27.0600 N   0  0  0  0  0  0  0  0  0  0  0  0
   23.0290   10.6750   22.0380 C   0  0  0  0  0  0  0  0  0  0  0  0
   23.5140   10.5290   20.7510 C   0  0  0  0  0  0  0  0  0  0  0  0
   24.7870   10.9520   20.4210 C   0  0  0  0  0  0  0  0  0  0  0  0
   25.2510   10.7710   19.1570 F   0  0  0  0  0  0  0  0  0  0  0  0
   27.7240   12.8150   22.0930 C   0  0  0  0  0  0  0  0  0  0  0  0
   26.8590   14.3070   22.5130 S   0  0  0  0  0  0  0  0  0  0  0  0
   27.8540   15.2320   23.0250 O   0  0  0  0  0  0  0  0  0  0  0  0
   25.6130   14.0310   23.1560 O   0  0  0  0  0  0  0  0  0  0  0  0
   25.7795   16.6096   21.9696 H   0  0  0  0  0  0  0  0  0  0  0  0
   26.6303   16.8975   20.4140 H   0  0  0  0  0  0  0  0  0  0  0  0
   24.9385   16.2938   20.4140 H   0  0  0  0  0  0  0  0  0  0  0  0
   26.7550   14.4500   17.7520 H   0  0  0  0  0  0  0  0  0  0  0  0
   26.3460   15.8270   18.6710 H   0  0  0  0  0  0  0  0  0  0  0  0
   28.2405   10.3815   21.5211 H   0  0  0  0  0  0  0  0  0  0  0  0
   27.2879   10.1636   20.0138 H   0  0  0  0  0  0  0  0  0  0  0  0
   28.7395   11.2217   20.0138 H   0  0  0  0  0  0  0  0  0  0  0  0
   25.7363   12.1895   23.4007 H   0  0  0  0  0  0  0  0  0  0  0  0
   23.8190   10.8130   24.9680 H   0  0  0  0  0  0  0  0  0  0  0  0
   21.5589   10.2474   25.9652 H   0  0  0  0  0  0  0  0  0  0  0  0
   20.9118   10.0333   28.3764 H   0  0  0  0  0  0  0  0  0  0  0  0
   22.2746   14.0317   29.0319 H   0  0  0  0  0  0  0  0  0  0  0  0
   22.0176   10.3337   22.3038 H   0  0  0  0  0  0  0  0  0  0  0  0
   22.8777   10.0700   19.9800 H   0  0  0  0  0  0  0  0  0  0  0  0
   27.7817   12.1687   22.9812 H   0  0  0  0  0  0  0  0  0  0  0  0
   28.7343   13.0773   21.7460 H   0  0  0  0  0  0  0  0  0  0  0  0
  1  2  1  0
  2  3  1  0
  3  4  1  0
  3  5  2  0
  5  6  1  0
  6  7  1  6
  6  8  1  0
  8  9  2  0
  9 10  1  0
 10 11  1  0
 11 12  1  0
 12 13  2  0
 12 14  1  0
 14 15  2  0
 15 16  1  0
 16 17  2  0
 17 18  1  0
 17 19  1  0
 19 20  2  0
 10 21  2  0
 21 22  1  0
 22 23  2  0
 23 24  1  0
  6 25  1  0
 25 26  1  0
 26 27  2  0
 26 28  2  0
 26  2  1  0
 23  8  1  0
 20 14  1  0
  1 29  1  0
  1 30  1  0
  1 31  1  0
  4 32  1  0
  4 33  1  0
  7 34  1  0
  7 35  1  0
  7 36  1  0
  9 37  1  0
 11 38  1  0
 15 39  1  0
 16 40  1  0
 19 41  1  0
 21 42  1  0
 22 43  1  0
 25 44  1  0
 25 45  1  0
M  END
>  <meeko>  (8)
{"is_sidechain": false}

>  <source_group>  (8)
BACE1-476

>  <source_system>  (8)
BACE1_verubecestat

>  <source_run>  (8)
alternate_476_seed2207_ex32

>  <source_seed>  (8)
2207

>  <vina_pose_rank>  (8)
8

>  <vina_affinity_kcal_mol>  (8)
-7.992

>  <vina_rmsd_to_crystal_angstrom>  (8)
7.2918000000000003

$$$$
BACE1_verubecestat__alternate_476_seed2207_ex32__pose09
     RDKit          3D

 45 47  0  0  0  0  0  0  0  0999 V2000
   16.9240   13.9790   26.6360 C   0  0  0  0  0  0  0  0  0  0  0  0
   17.8460   12.8750   26.9670 N   0  0  0  0  0  0  0  0  0  0  0  0
   17.9590   12.3280   28.2650 C   0  0  0  0  0  0  0  0  0  0  0  0
   17.0330   12.8080   29.1520 N   0  0  0  0  0  0  0  0  0  0  0  0
   18.8380   11.4340   28.5970 N   0  0  0  0  0  0  0  0  0  0  0  0
   19.8810   11.0000   27.6690 C   0  0  2  0  0  0  0  0  0  0  0  0
   20.3460    9.6720   28.2730 C   0  0  0  0  0  0  0  0  0  0  0  0
   21.0570   11.9640   27.6400 C   0  0  0  0  0  0  0  0  0  0  0  0
   21.7240   12.2500   26.4500 C   0  0  0  0  0  0  0  0  0  0  0  0
   22.7930   13.1160   26.3950 C   0  0  0  0  0  0  0  0  0  0  0  0
   23.3720   13.3190   25.1350 N   0  0  0  0  0  0  0  0  0  0  0  0
   24.2340   12.4850   24.4450 C   0  0  0  0  0  0  0  0  0  0  0  0
   24.7400   11.4660   24.8950 O   0  0  0  0  0  0  0  0  0  0  0  0
   24.5070   12.8800   23.0410 C   0  0  0  0  0  0  0  0  0  0  0  0
   23.4710   12.9400   22.1260 C   0  0  0  0  0  0  0  0  0  0  0  0
   23.7830   13.3120   20.8300 C   0  0  0  0  0  0  0  0  0  0  0  0
   25.0900   13.6090   20.4960 C   0  0  0  0  0  0  0  0  0  0  0  0
   25.4430   13.9660   19.2490 F   0  0  0  0  0  0  0  0  0  0  0  0
   26.0530   13.5150   21.4750 C   0  0  0  0  0  0  0  0  0  0  0  0
   25.7810   13.1510   22.7390 N   0  0  0  0  0  0  0  0  0  0  0  0
   23.2350   13.7620   27.5420 C   0  0  0  0  0  0  0  0  0  0  0  0
   22.5860   13.4880   28.7340 C   0  0  0  0  0  0  0  0  0  0  0  0
   21.5360   12.5920   28.7800 C   0  0  0  0  0  0  0  0  0  0  0  0
   20.9360   12.3180   29.9660 F   0  0  0  0  0  0  0  0  0  0  0  0
   19.2760   10.6860   26.3190 C   0  0  0  0  0  0  0  0  0  0  0  0
   18.5780   12.1460   25.5900 S   0  0  0  0  0  0  0  0  0  0  0  0
   17.5060   11.7010   24.7180 O   0  0  0  0  0  0  0  0  0  0  0  0
   19.5900   13.0800   25.2070 O   0  0  0  0  0  0  0  0  0  0  0  0
   16.5459   14.4318   27.5644 H   0  0  0  0  0  0  0  0  0  0  0  0
   17.4589   14.7397   26.0484 H   0  0  0  0  0  0  0  0  0  0  0  0
   16.0801   13.5883   26.0484 H   0  0  0  0  0  0  0  0  0  0  0  0
   17.0310   12.4870   30.0830 H   0  0  0  0  0  0  0  0  0  0  0  0
   16.3690   13.4730   28.8590 H   0  0  0  0  0  0  0  0  0  0  0  0
   20.3222    9.7401   29.3706 H   0  0  0  0  0  0  0  0  0  0  0  0
   19.6773    8.8641   27.9411 H   0  0  0  0  0  0  0  0  0  0  0  0
   21.3726    9.4578   27.9411 H   0  0  0  0  0  0  0  0  0  0  0  0
   21.3843   11.7668   25.5220 H   0  0  0  0  0  0  0  0  0  0  0  0
   23.1360   14.1610   24.6840 H   0  0  0  0  0  0  0  0  0  0  0  0
   22.4377   12.7009   22.4178 H   0  0  0  0  0  0  0  0  0  0  0  0
   22.9921   13.3710   20.0678 H   0  0  0  0  0  0  0  0  0  0  0  0
   27.0946   13.7490   21.2097 H   0  0  0  0  0  0  0  0  0  0  0  0
   24.0757   14.4704   27.5047 H   0  0  0  0  0  0  0  0  0  0  0  0
   22.9111   13.9907   29.6568 H   0  0  0  0  0  0  0  0  0  0  0  0
   20.0590   10.2900   25.6556 H   0  0  0  0  0  0  0  0  0  0  0  0
   18.4776    9.9414   26.4536 H   0  0  0  0  0  0  0  0  0  0  0  0
  1  2  1  0
  2  3  1  0
  3  4  1  0
  3  5  2  0
  5  6  1  0
  6  7  1  1
  6  8  1  0
  8  9  2  0
  9 10  1  0
 10 11  1  0
 11 12  1  0
 12 13  2  0
 12 14  1  0
 14 15  2  0
 15 16  1  0
 16 17  2  0
 17 18  1  0
 17 19  1  0
 19 20  2  0
 10 21  2  0
 21 22  1  0
 22 23  2  0
 23 24  1  0
  6 25  1  0
 25 26  1  0
 26 27  2  0
 26 28  2  0
 26  2  1  0
 23  8  1  0
 20 14  1  0
  1 29  1  0
  1 30  1  0
  1 31  1  0
  4 32  1  0
  4 33  1  0
  7 34  1  0
  7 35  1  0
  7 36  1  0
  9 37  1  0
 11 38  1  0
 15 39  1  0
 16 40  1  0
 19 41  1  0
 21 42  1  0
 22 43  1  0
 25 44  1  0
 25 45  1  0
M  END
>  <meeko>  (9)
{"is_sidechain": false}

>  <source_group>  (9)
BACE1-476

>  <source_system>  (9)
BACE1_verubecestat

>  <source_run>  (9)
alternate_476_seed2207_ex32

>  <source_seed>  (9)
2207

>  <vina_pose_rank>  (9)
9

>  <vina_affinity_kcal_mol>  (9)
-7.8289999999999997

>  <vina_rmsd_to_crystal_angstrom>  (9)
7.0391000000000004

$$$$
BACE1_verubecestat__alternate_476_seed2207_ex32__pose10
     RDKit          3D

 45 47  0  0  0  0  0  0  0  0999 V2000
   22.6760   11.4420   23.6320 C   0  0  0  0  0  0  0  0  0  0  0  0
   22.2370   11.2160   25.0230 N   0  0  0  0  0  0  0  0  0  0  0  0
   21.8700    9.9450   25.5190 C   0  0  0  0  0  0  0  0  0  0  0  0
   22.1030    8.9190   24.6420 N   0  0  0  0  0  0  0  0  0  0  0  0
   21.3790    9.7460   26.7030 N   0  0  0  0  0  0  0  0  0  0  0  0
   21.0470   10.8570   27.5930 C   0  0  2  0  0  0  0  0  0  0  0  0
   20.9740   10.1860   28.9670 C   0  0  0  0  0  0  0  0  0  0  0  0
   19.6900   11.4620   27.2690 C   0  0  0  0  0  0  0  0  0  0  0  0
   18.8090   10.8260   26.3950 C   0  0  0  0  0  0  0  0  0  0  0  0
   17.5760   11.3520   26.0820 C   0  0  0  0  0  0  0  0  0  0  0  0
   16.7860   10.6120   25.1920 N   0  0  0  0  0  0  0  0  0  0  0  0
   15.4270   10.7220   24.9570 C   0  0  0  0  0  0  0  0  0  0  0  0
   14.6550   11.4190   25.6020 O   0  0  0  0  0  0  0  0  0  0  0  0
   14.9190    9.9430   23.8020 C   0  0  0  0  0  0  0  0  0  0  0  0
   15.6590    8.8840   23.3030 C   0  0  0  0  0  0  0  0  0  0  0  0
   15.1380    8.1930   22.2230 C   0  0  0  0  0  0  0  0  0  0  0  0
   13.9210    8.5690   21.6880 C   0  0  0  0  0  0  0  0  0  0  0  0
   13.3810    7.9340   20.6340 F   0  0  0  0  0  0  0  0  0  0  0  0
   13.2630    9.6390   22.2490 C   0  0  0  0  0  0  0  0  0  0  0  0
   13.7450   10.3320   23.2940 N   0  0  0  0  0  0  0  0  0  0  0  0
   17.1530   12.5440   26.6550 C   0  0  0  0  0  0  0  0  0  0  0  0
   18.0150   13.1900   27.5220 C   0  0  0  0  0  0  0  0  0  0  0  0
   19.2630   12.6680   27.8030 C   0  0  0  0  0  0  0  0  0  0  0  0
   20.1020   13.3370   28.6340 F   0  0  0  0  0  0  0  0  0  0  0  0
   22.1920   11.8440   27.6420 C   0  0  0  0  0  0  0  0  0  0  0  0
   22.4530   12.5820   26.0490 S   0  0  0  0  0  0  0  0  0  0  0  0
   23.8570   12.9480   25.9870 O   0  0  0  0  0  0  0  0  0  0  0  0
   21.3790   13.4540   25.6890 O   0  0  0  0  0  0  0  0  0  0  0  0
   23.6540   11.9455   23.6334 H   0  0  0  0  0  0  0  0  0  0  0  0
   22.7617   10.4759   23.1130 H   0  0  0  0  0  0  0  0  0  0  0  0
   21.9395   12.0730   23.1130 H   0  0  0  0  0  0  0  0  0  0  0  0
   21.8800    7.9950   24.8970 H   0  0  0  0  0  0  0  0  0  0  0  0
   22.4940    9.1060   23.7580 H   0  0  0  0  0  0  0  0  0  0  0  0
   21.0572   10.9507   29.7534 H   0  0  0  0  0  0  0  0  0  0  0  0
   20.0133    9.6597   29.0675 H   0  0  0  0  0  0  0  0  0  0  0  0
   21.7991    9.4655   29.0675 H   0  0  0  0  0  0  0  0  0  0  0  0
   19.1098    9.8708   25.9399 H   0  0  0  0  0  0  0  0  0  0  0  0
   17.2590    9.9260   24.6670 H   0  0  0  0  0  0  0  0  0  0  0  0
   16.6247    8.6027   23.7484 H   0  0  0  0  0  0  0  0  0  0  0  0
   15.6917    7.3462   21.7915 H   0  0  0  0  0  0  0  0  0  0  0  0
   12.2958    9.9416   21.8214 H   0  0  0  0  0  0  0  0  0  0  0  0
   16.1616   12.9620   26.4260 H   0  0  0  0  0  0  0  0  0  0  0  0
   17.7027   14.1329   27.9947 H   0  0  0  0  0  0  0  0  0  0  0  0
   21.9574   12.6332   28.3715 H   0  0  0  0  0  0  0  0  0  0  0  0
   23.1068   11.3099   27.9384 H   0  0  0  0  0  0  0  0  0  0  0  0
  1  2  1  0
  2  3  1  0
  3  4  1  0
  3  5  2  0
  5  6  1  0
  6  7  1  1
  6  8  1  0
  8  9  2  0
  9 10  1  0
 10 11  1  0
 11 12  1  0
 12 13  2  0
 12 14  1  0
 14 15  2  0
 15 16  1  0
 16 17  2  0
 17 18  1  0
 17 19  1  0
 19 20  2  0
 10 21  2  0
 21 22  1  0
 22 23  2  0
 23 24  1  0
  6 25  1  0
 25 26  1  0
 26 27  2  0
 26 28  2  0
 26  2  1  0
 23  8  1  0
 20 14  1  0
  1 29  1  0
  1 30  1  0
  1 31  1  0
  4 32  1  0
  4 33  1  0
  7 34  1  0
  7 35  1  0
  7 36  1  0
  9 37  1  0
 11 38  1  0
 15 39  1  0
 16 40  1  0
 19 41  1  0
 21 42  1  0
 22 43  1  0
 25 44  1  0
 25 45  1  0
M  END
>  <meeko>  (10)
{"is_sidechain": false}

>  <source_group>  (10)
BACE1-476

>  <source_system>  (10)
BACE1_verubecestat

>  <source_run>  (10)
alternate_476_seed2207_ex32

>  <source_seed>  (10)
2207

>  <vina_pose_rank>  (10)
10

>  <vina_affinity_kcal_mol>  (10)
-7.7080000000000002

>  <vina_rmsd_to_crystal_angstrom>  (10)
10.4808

$$$$
BACE1_verubecestat__alternate_476_seed2207_ex32__pose11
     RDKit          3D

 45 47  0  0  0  0  0  0  0  0999 V2000
   29.3180   16.8370   24.7220 C   0  0  0  0  0  0  0  0  0  0  0  0
   29.1110   15.5400   24.0490 N   0  0  0  0  0  0  0  0  0  0  0  0
   29.6400   15.2400   22.7740 C   0  0  0  0  0  0  0  0  0  0  0  0
   30.4860   16.1990   22.2840 N   0  0  0  0  0  0  0  0  0  0  0  0
   29.3790   14.1490   22.1220 N   0  0  0  0  0  0  0  0  0  0  0  0
   28.4010   13.1780   22.6110 C   0  0  2  0  0  0  0  0  0  0  0  0
   28.7620   11.9090   21.8340 C   0  0  0  0  0  0  0  0  0  0  0  0
   26.9760   13.5780   22.2630 C   0  0  0  0  0  0  0  0  0  0  0  0
   25.8890   13.0350   22.9460 C   0  0  0  0  0  0  0  0  0  0  0  0
   24.5890   13.3760   22.6510 C   0  0  0  0  0  0  0  0  0  0  0  0
   23.5890   12.7590   23.4140 N   0  0  0  0  0  0  0  0  0  0  0  0
   23.2060   13.0410   24.7140 C   0  0  0  0  0  0  0  0  0  0  0  0
   23.7850   13.8120   25.4670 O   0  0  0  0  0  0  0  0  0  0  0  0
   21.9730   12.3560   25.1730 C   0  0  0  0  0  0  0  0  0  0  0  0
   22.0350   11.0480   25.6210 C   0  0  0  0  0  0  0  0  0  0  0  0
   20.8540   10.4580   26.0360 C   0  0  0  0  0  0  0  0  0  0  0  0
   19.6750   11.1770   25.9950 C   0  0  0  0  0  0  0  0  0  0  0  0
   18.5020   10.6430   26.3790 F   0  0  0  0  0  0  0  0  0  0  0  0
   19.7140   12.4710   25.5280 C   0  0  0  0  0  0  0  0  0  0  0  0
   20.8430   13.0680   25.1140 N   0  0  0  0  0  0  0  0  0  0  0  0
   24.3140   14.3090   21.6590 C   0  0  0  0  0  0  0  0  0  0  0  0
   25.3810   14.8560   20.9680 C   0  0  0  0  0  0  0  0  0  0  0  0
   26.6790   14.4800   21.2530 C   0  0  0  0  0  0  0  0  0  0  0  0
   27.7060   15.0100   20.5400 F   0  0  0  0  0  0  0  0  0  0  0  0
   28.6460   12.8860   24.0740 C   0  0  0  0  0  0  0  0  0  0  0  0
   28.3900   14.3430   25.0550 S   0  0  0  0  0  0  0  0  0  0  0  0
   29.2330   14.2050   26.2300 O   0  0  0  0  0  0  0  0  0  0  0  0
   27.0110   14.7160   25.0960 O   0  0  0  0  0  0  0  0  0  0  0  0
   29.2949   16.6922   25.8122 H   0  0  0  0  0  0  0  0  0  0  0  0
   30.2936   17.2512   24.4277 H   0  0  0  0  0  0  0  0  0  0  0  0
   28.5198   17.5343   24.4277 H   0  0  0  0  0  0  0  0  0  0  0  0
   30.9060   16.0810   21.4010 H   0  0  0  0  0  0  0  0  0  0  0  0
   30.6750   17.0060   22.8150 H   0  0  0  0  0  0  0  0  0  0  0  0
   28.9924   11.0989   22.5416 H   0  0  0  0  0  0  0  0  0  0  0  0
   27.9126   11.6125   21.2011 H   0  0  0  0  0  0  0  0  0  0  0  0
   29.6403   12.1040   21.2011 H   0  0  0  0  0  0  0  0  0  0  0  0
   26.0772   12.3078   23.7496 H   0  0  0  0  0  0  0  0  0  0  0  0
   23.0950   12.0330   22.9690 H   0  0  0  0  0  0  0  0  0  0  0  0
   22.9873   10.4980   25.6463 H   0  0  0  0  0  0  0  0  0  0  0  0
   20.8540    9.4191   26.3976 H   0  0  0  0  0  0  0  0  0  0  0  0
   18.7754   13.0434   25.4922 H   0  0  0  0  0  0  0  0  0  0  0  0
   23.2794   14.6040   21.4297 H   0  0  0  0  0  0  0  0  0  0  0  0
   25.1926   15.6007   20.1807 H   0  0  0  0  0  0  0  0  0  0  0  0
   27.9521   12.1000   24.4066 H   0  0  0  0  0  0  0  0  0  0  0  0
   29.6870   12.5534   24.1991 H   0  0  0  0  0  0  0  0  0  0  0  0
  1  2  1  0
  2  3  1  0
  3  4  1  0
  3  5  2  0
  5  6  1  0
  6  7  1  6
  6  8  1  0
  8  9  2  0
  9 10  1  0
 10 11  1  0
 11 12  1  0
 12 13  2  0
 12 14  1  0
 14 15  2  0
 15 16  1  0
 16 17  2  0
 17 18  1  0
 17 19  1  0
 19 20  2  0
 10 21  2  0
 21 22  1  0
 22 23  2  0
 23 24  1  0
  6 25  1  0
 25 26  1  0
 26 27  2  0
 26 28  2  0
 26  2  1  0
 23  8  1  0
 20 14  1  0
  1 29  1  0
  1 30  1  0
  1 31  1  0
  4 32  1  0
  4 33  1  0
  7 34  1  0
  7 35  1  0
  7 36  1  0
  9 37  1  0
 11 38  1  0
 15 39  1  0
 16 40  1  0
 19 41  1  0
 21 42  1  0
 22 43  1  0
 25 44  1  0
 25 45  1  0
M  END
>  <meeko>  (11)
{"is_sidechain": false}

>  <source_group>  (11)
BACE1-476

>  <source_system>  (11)
BACE1_verubecestat

>  <source_run>  (11)
alternate_476_seed2207_ex32

>  <source_seed>  (11)
2207

>  <vina_pose_rank>  (11)
11

>  <vina_affinity_kcal_mol>  (11)
-7.6619999999999999

>  <vina_rmsd_to_crystal_angstrom>  (11)
8.1980000000000004

$$$$
BACE1_verubecestat__alternate_476_seed2207_ex32__pose12
     RDKit          3D

 45 47  0  0  0  0  0  0  0  0999 V2000
   25.1820    9.8480   20.7990 C   0  0  0  0  0  0  0  0  0  0  0  0
   25.2990   11.3180   20.8780 N   0  0  0  0  0  0  0  0  0  0  0  0
   26.4370   12.0240   20.4300 C   0  0  0  0  0  0  0  0  0  0  0  0
   27.3550   11.2440   19.7790 N   0  0  0  0  0  0  0  0  0  0  0  0
   26.6040   13.3010   20.5900 N   0  0  0  0  0  0  0  0  0  0  0  0
   25.6640   14.1060   21.3690 C   0  0  2  0  0  0  0  0  0  0  0  0
   25.9660   15.5330   20.9020 C   0  0  0  0  0  0  0  0  0  0  0  0
   25.9330   14.0110   22.8630 C   0  0  0  0  0  0  0  0  0  0  0  0
   24.8850   13.9480   23.7800 C   0  0  0  0  0  0  0  0  0  0  0  0
   25.0980   13.8640   25.1370 C   0  0  0  0  0  0  0  0  0  0  0  0
   23.9580   13.8040   25.9490 N   0  0  0  0  0  0  0  0  0  0  0  0
   23.2280   12.6890   26.3220 C   0  0  0  0  0  0  0  0  0  0  0  0
   23.3960   11.5590   25.8820 O   0  0  0  0  0  0  0  0  0  0  0  0
   22.1980   12.9250   27.3620 C   0  0  0  0  0  0  0  0  0  0  0  0
   22.5210   13.6340   28.5060 C   0  0  0  0  0  0  0  0  0  0  0  0
   21.5210   13.8230   29.4440 C   0  0  0  0  0  0  0  0  0  0  0  0
   20.2580   13.3140   29.2160 C   0  0  0  0  0  0  0  0  0  0  0  0
   19.2590   13.4640   30.1020 F   0  0  0  0  0  0  0  0  0  0  0  0
   20.0350   12.6170   28.0500 C   0  0  0  0  0  0  0  0  0  0  0  0
   20.9860   12.4130   27.1230 N   0  0  0  0  0  0  0  0  0  0  0  0
   26.3910   13.8160   25.6440 C   0  0  0  0  0  0  0  0  0  0  0  0
   27.4430   13.8810   24.7490 C   0  0  0  0  0  0  0  0  0  0  0  0
   27.2140   13.9980   23.3920 C   0  0  0  0  0  0  0  0  0  0  0  0
   28.2640   14.0890   22.5360 F   0  0  0  0  0  0  0  0  0  0  0  0
   24.2440   13.7950   20.9520 C   0  0  0  0  0  0  0  0  0  0  0  0
   23.8360   12.1080   21.3250 S   0  0  0  0  0  0  0  0  0  0  0  0
   22.8210   11.7060   20.3670 O   0  0  0  0  0  0  0  0  0  0  0  0
   23.7440   11.8860   22.7340 O   0  0  0  0  0  0  0  0  0  0  0  0
   25.1485    9.4277   21.8150 H   0  0  0  0  0  0  0  0  0  0  0  0
   24.2598    9.5819   20.2616 H   0  0  0  0  0  0  0  0  0  0  0  0
   26.0505    9.4394   20.2616 H   0  0  0  0  0  0  0  0  0  0  0  0
   28.1830   11.6460   19.4290 H   0  0  0  0  0  0  0  0  0  0  0  0
   27.1870   10.2810   19.6600 H   0  0  0  0  0  0  0  0  0  0  0  0
   26.1038   16.1840   21.7779 H   0  0  0  0  0  0  0  0  0  0  0  0
   26.8842   15.5340   20.2963 H   0  0  0  0  0  0  0  0  0  0  0  0
   25.1269   15.9059   20.2963 H   0  0  0  0  0  0  0  0  0  0  0  0
   23.8508   13.9661   23.4056 H   0  0  0  0  0  0  0  0  0  0  0  0
   23.6360   14.6660   26.3000 H   0  0  0  0  0  0  0  0  0  0  0  0
   23.5342   14.0322   28.6637 H   0  0  0  0  0  0  0  0  0  0  0  0
   21.7322   14.3780   30.3699 H   0  0  0  0  0  0  0  0  0  0  0  0
   19.0303   12.2075   27.8686 H   0  0  0  0  0  0  0  0  0  0  0  0
   26.5722   13.7289   26.7255 H   0  0  0  0  0  0  0  0  0  0  0  0
   28.4766   13.8389   25.1230 H   0  0  0  0  0  0  0  0  0  0  0  0
   23.5549   14.4611   21.4920 H   0  0  0  0  0  0  0  0  0  0  0  0
   24.1521   13.9496   19.8668 H   0  0  0  0  0  0  0  0  0  0  0  0
  1  2  1  0
  2  3  1  0
  3  4  1  0
  3  5  2  0
  5  6  1  0
  6  7  1  6
  6  8  1  0
  8  9  2  0
  9 10  1  0
 10 11  1  0
 11 12  1  0
 12 13  2  0
 12 14  1  0
 14 15  2  0
 15 16  1  0
 16 17  2  0
 17 18  1  0
 17 19  1  0
 19 20  2  0
 10 21  2  0
 21 22  1  0
 22 23  2  0
 23 24  1  0
  6 25  1  0
 25 26  1  0
 26 27  2  0
 26 28  2  0
 26  2  1  0
 23  8  1  0
 20 14  1  0
  1 29  1  0
  1 30  1  0
  1 31  1  0
  4 32  1  0
  4 33  1  0
  7 34  1  0
  7 35  1  0
  7 36  1  0
  9 37  1  0
 11 38  1  0
 15 39  1  0
 16 40  1  0
 19 41  1  0
 21 42  1  0
 22 43  1  0
 25 44  1  0
 25 45  1  0
M  END
>  <meeko>  (12)
{"is_sidechain": false}

>  <source_group>  (12)
BACE1-476

>  <source_system>  (12)
BACE1_verubecestat

>  <source_run>  (12)
alternate_476_seed2207_ex32

>  <source_seed>  (12)
2207

>  <vina_pose_rank>  (12)
12

>  <vina_affinity_kcal_mol>  (12)
-7.5309999999999997

>  <vina_rmsd_to_crystal_angstrom>  (12)
7.9459999999999997

$$$$
BACE1_verubecestat__alternate_476_seed2207_ex32__pose13
     RDKit          3D

 45 47  0  0  0  0  0  0  0  0999 V2000
   27.1870   10.4320   20.5730 C   0  0  0  0  0  0  0  0  0  0  0  0
   25.9900   11.2830   20.4240 N   0  0  0  0  0  0  0  0  0  0  0  0
   25.9830   12.4780   19.6710 C   0  0  0  0  0  0  0  0  0  0  0  0
   27.1370   12.6970   18.9670 N   0  0  0  0  0  0  0  0  0  0  0  0
   24.9750   13.2920   19.6180 N   0  0  0  0  0  0  0  0  0  0  0  0
   23.7860   13.0970   20.4460 C   0  0  2  0  0  0  0  0  0  0  0  0
   22.7310   13.9510   19.7370 C   0  0  0  0  0  0  0  0  0  0  0  0
   23.9800   13.6280   21.8580 C   0  0  0  0  0  0  0  0  0  0  0  0
   23.2150   13.1480   22.9190 C   0  0  0  0  0  0  0  0  0  0  0  0
   23.3670   13.6130   24.2060 C   0  0  0  0  0  0  0  0  0  0  0  0
   22.5370   13.0440   25.1810 N   0  0  0  0  0  0  0  0  0  0  0  0
   22.7160   11.8600   25.8750 C   0  0  0  0  0  0  0  0  0  0  0  0
   23.5910   11.0360   25.6460 O   0  0  0  0  0  0  0  0  0  0  0  0
   21.7700   11.6340   26.9950 C   0  0  0  0  0  0  0  0  0  0  0  0
   21.8600   12.4050   28.1410 C   0  0  0  0  0  0  0  0  0  0  0  0
   20.9540   12.1490   29.1550 C   0  0  0  0  0  0  0  0  0  0  0  0
   20.0050   11.1580   28.9970 C   0  0  0  0  0  0  0  0  0  0  0  0
   19.1120   10.8680   29.9580 F   0  0  0  0  0  0  0  0  0  0  0  0
   19.9990   10.4410   27.8220 C   0  0  0  0  0  0  0  0  0  0  0  0
   20.8690   10.6620   26.8230 N   0  0  0  0  0  0  0  0  0  0  0  0
   24.3230   14.5780   24.4970 C   0  0  0  0  0  0  0  0  0  0  0  0
   25.0890   15.0690   23.4550 C   0  0  0  0  0  0  0  0  0  0  0  0
   24.9030   14.6170   22.1630 C   0  0  0  0  0  0  0  0  0  0  0  0
   25.6480   15.1360   21.1540 F   0  0  0  0  0  0  0  0  0  0  0  0
   23.3240   11.6600   20.3600 C   0  0  0  0  0  0  0  0  0  0  0  0
   24.5490   10.5660   21.0340 S   0  0  0  0  0  0  0  0  0  0  0  0
   24.3830    9.2920   20.3570 O   0  0  0  0  0  0  0  0  0  0  0  0
   24.6660   10.7140   22.4510 O   0  0  0  0  0  0  0  0  0  0  0  0
   27.3990   10.2813   21.6418 H   0  0  0  0  0  0  0  0  0  0  0  0
   27.0066    9.4583   20.0941 H   0  0  0  0  0  0  0  0  0  0  0  0
   28.0474   10.9223   20.0941 H   0  0  0  0  0  0  0  0  0  0  0  0
   27.2280   13.5050   18.4110 H   0  0  0  0  0  0  0  0  0  0  0  0
   27.8760   12.0480   19.0170 H   0  0  0  0  0  0  0  0  0  0  0  0
   22.1052   14.4576   20.4865 H   0  0  0  0  0  0  0  0  0  0  0  0
   23.2301   14.7025   19.1076 H   0  0  0  0  0  0  0  0  0  0  0  0
   22.0999   13.3063   19.1076 H   0  0  0  0  0  0  0  0  0  0  0  0
   22.4629   12.3700   22.7214 H   0  0  0  0  0  0  0  0  0  0  0  0
   21.7230   13.5520   25.4010 H   0  0  0  0  0  0  0  0  0  0  0  0
   22.6227   13.1912   28.2418 H   0  0  0  0  0  0  0  0  0  0  0  0
   20.9895   12.7340   30.0858 H   0  0  0  0  0  0  0  0  0  0  0  0
   19.2458    9.6494   27.6952 H   0  0  0  0  0  0  0  0  0  0  0  0
   24.4666   14.9409   25.5254 H   0  0  0  0  0  0  0  0  0  0  0  0
   25.8569   15.8300   23.6581 H   0  0  0  0  0  0  0  0  0  0  0  0
   22.3880   11.5471   20.9267 H   0  0  0  0  0  0  0  0  0  0  0  0
   23.1633   11.4027   19.3027 H   0  0  0  0  0  0  0  0  0  0  0  0
  1  2  1  0
  2  3  1  0
  3  4  1  0
  3  5  2  0
  5  6  1  0
  6  7  1  6
  6  8  1  0
  8  9  2  0
  9 10  1  0
 10 11  1  0
 11 12  1  0
 12 13  2  0
 12 14  1  0
 14 15  2  0
 15 16  1  0
 16 17  2  0
 17 18  1  0
 17 19  1  0
 19 20  2  0
 10 21  2  0
 21 22  1  0
 22 23  2  0
 23 24  1  0
  6 25  1  0
 25 26  1  0
 26 27  2  0
 26 28  2  0
 26  2  1  0
 23  8  1  0
 20 14  1  0
  1 29  1  0
  1 30  1  0
  1 31  1  0
  4 32  1  0
  4 33  1  0
  7 34  1  0
  7 35  1  0
  7 36  1  0
  9 37  1  0
 11 38  1  0
 15 39  1  0
 16 40  1  0
 19 41  1  0
 21 42  1  0
 22 43  1  0
 25 44  1  0
 25 45  1  0
M  END
>  <meeko>  (13)
{"is_sidechain": false}

>  <source_group>  (13)
BACE1-476

>  <source_system>  (13)
BACE1_verubecestat

>  <source_run>  (13)
alternate_476_seed2207_ex32

>  <source_seed>  (13)
2207

>  <vina_pose_rank>  (13)
13

>  <vina_affinity_kcal_mol>  (13)
-7.4480000000000004

>  <vina_rmsd_to_crystal_angstrom>  (13)
7.5262000000000002

$$$$
BACE1_verubecestat__alternate_476_seed2207_ex32__pose14
     RDKit          3D

 45 47  0  0  0  0  0  0  0  0999 V2000
   24.7710   13.5490   19.7460 C   0  0  0  0  0  0  0  0  0  0  0  0
   26.0840   13.5480   20.4200 N   0  0  0  0  0  0  0  0  0  0  0  0
   26.8170   12.3680   20.6770 C   0  0  0  0  0  0  0  0  0  0  0  0
   26.2760   11.2440   20.1120 N   0  0  0  0  0  0  0  0  0  0  0  0
   27.9180   12.3370   21.3630 N   0  0  0  0  0  0  0  0  0  0  0  0
   28.4350   13.5250   22.0400 C   0  0  2  0  0  0  0  0  0  0  0  0
   29.9030   13.1680   22.2870 C   0  0  0  0  0  0  0  0  0  0  0  0
   27.7550   13.7590   23.3800 C   0  0  0  0  0  0  0  0  0  0  0  0
   26.5410   13.1460   23.6880 C   0  0  0  0  0  0  0  0  0  0  0  0
   25.9020   13.3430   24.8910 C   0  0  0  0  0  0  0  0  0  0  0  0
   24.6900   12.6650   25.0760 N   0  0  0  0  0  0  0  0  0  0  0  0
   23.5990   13.0510   25.8340 C   0  0  0  0  0  0  0  0  0  0  0  0
   23.5710   14.0160   26.5870 O   0  0  0  0  0  0  0  0  0  0  0  0
   22.3820   12.2220   25.6610 C   0  0  0  0  0  0  0  0  0  0  0  0
   21.1540   12.6990   26.0870 C   0  0  0  0  0  0  0  0  0  0  0  0
   20.0520   11.8830   25.9020 C   0  0  0  0  0  0  0  0  0  0  0  0
   20.2050   10.6450   25.3080 C   0  0  0  0  0  0  0  0  0  0  0  0
   19.1660    9.8140   25.1160 F   0  0  0  0  0  0  0  0  0  0  0  0
   21.4680   10.2560   24.9220 C   0  0  0  0  0  0  0  0  0  0  0  0
   22.5570   11.0240   25.0940 N   0  0  0  0  0  0  0  0  0  0  0  0
   26.4690   14.1570   25.8640 C   0  0  0  0  0  0  0  0  0  0  0  0
   27.6710   14.7760   25.5740 C   0  0  0  0  0  0  0  0  0  0  0  0
   28.2850   14.5960   24.3500 C   0  0  0  0  0  0  0  0  0  0  0  0
   29.4500   15.2380   24.0790 F   0  0  0  0  0  0  0  0  0  0  0  0
   28.4190   14.7080   21.0980 C   0  0  0  0  0  0  0  0  0  0  0  0
   26.7550   15.1190   20.6350 S   0  0  0  0  0  0  0  0  0  0  0  0
   26.8310   15.7370   19.3230 O   0  0  0  0  0  0  0  0  0  0  0  0
   26.0200   15.6580   21.7360 O   0  0  0  0  0  0  0  0  0  0  0  0
   23.9712   13.5496   20.5012 H   0  0  0  0  0  0  0  0  0  0  0  0
   24.6823   14.4472   19.1172 H   0  0  0  0  0  0  0  0  0  0  0  0
   24.6809   12.6509   19.1172 H   0  0  0  0  0  0  0  0  0  0  0  0
   26.7150   10.3720   20.2350 H   0  0  0  0  0  0  0  0  0  0  0  0
   25.4480   11.3090   19.5830 H   0  0  0  0  0  0  0  0  0  0  0  0
   30.0920   13.1220   23.3697 H   0  0  0  0  0  0  0  0  0  0  0  0
   30.1237   12.1900   21.8344 H   0  0  0  0  0  0  0  0  0  0  0  0
   30.5481   13.9354   21.8344 H   0  0  0  0  0  0  0  0  0  0  0  0
   26.0778   12.4818   22.9435 H   0  0  0  0  0  0  0  0  0  0  0  0
   24.6040   11.8040   24.6060 H   0  0  0  0  0  0  0  0  0  0  0  0
   21.0580   13.6898   26.5551 H   0  0  0  0  0  0  0  0  0  0  0  0
   19.0564   12.2192   26.2271 H   0  0  0  0  0  0  0  0  0  0  0  0
   21.5914    9.2699   24.4505 H   0  0  0  0  0  0  0  0  0  0  0  0
   25.9762   14.3046   26.8363 H   0  0  0  0  0  0  0  0  0  0  0  0
   28.1448   15.4208   26.3288 H   0  0  0  0  0  0  0  0  0  0  0  0
   28.8791   15.5734   21.5973 H   0  0  0  0  0  0  0  0  0  0  0  0
   28.9839   14.4458   20.1913 H   0  0  0  0  0  0  0  0  0  0  0  0
  1  2  1  0
  2  3  1  0
  3  4  1  0
  3  5  2  0
  5  6  1  0
  6  7  1  1
  6  8  1  0
  8  9  2  0
  9 10  1  0
 10 11  1  0
 11 12  1  0
 12 13  2  0
 12 14  1  0
 14 15  2  0
 15 16  1  0
 16 17  2  0
 17 18  1  0
 17 19  1  0
 19 20  2  0
 10 21  2  0
 21 22  1  0
 22 23  2  0
 23 24  1  0
  6 25  1  0
 25 26  1  0
 26 27  2  0
 26 28  2  0
 26  2  1  0
 23  8  1  0
 20 14  1  0
  1 29  1  0
  1 30  1  0
  1 31  1  0
  4 32  1  0
  4 33  1  0
  7 34  1  0
  7 35  1  0
  7 36  1  0
  9 37  1  0
 11 38  1  0
 15 39  1  0
 16 40  1  0
 19 41  1  0
 21 42  1  0
 22 43  1  0
 25 44  1  0
 25 45  1  0
M  END
>  <meeko>  (14)
{"is_sidechain": false}

>  <source_group>  (14)
BACE1-476

>  <source_system>  (14)
BACE1_verubecestat

>  <source_run>  (14)
alternate_476_seed2207_ex32

>  <source_seed>  (14)
2207

>  <vina_pose_rank>  (14)
14

>  <vina_affinity_kcal_mol>  (14)
-7.335

>  <vina_rmsd_to_crystal_angstrom>  (14)
8.0632000000000001

$$$$
BACE1_verubecestat__alternate_476_seed2207_ex32__pose15
     RDKit          3D

 45 47  0  0  0  0  0  0  0  0999 V2000
   28.8720   13.7530   25.2130 C   0  0  0  0  0  0  0  0  0  0  0  0
   28.4700   14.3850   23.9410 N   0  0  0  0  0  0  0  0  0  0  0  0
   27.9420   15.6930   23.8640 C   0  0  0  0  0  0  0  0  0  0  0  0
   27.9800   16.3770   25.0490 N   0  0  0  0  0  0  0  0  0  0  0  0
   27.4830   16.2230   22.7730 N   0  0  0  0  0  0  0  0  0  0  0  0
   27.3600   15.4520   21.5370 C   0  0  2  0  0  0  0  0  0  0  0  0
   27.2530   16.5390   20.4640 C   0  0  0  0  0  0  0  0  0  0  0  0
   26.0940   14.6110   21.5120 C   0  0  0  0  0  0  0  0  0  0  0  0
   25.3560   14.3870   22.6740 C   0  0  0  0  0  0  0  0  0  0  0  0
   24.2080   13.6280   22.6820 C   0  0  0  0  0  0  0  0  0  0  0  0
   23.5600   13.4820   23.9150 N   0  0  0  0  0  0  0  0  0  0  0  0
   23.5520   12.3830   24.7550 C   0  0  0  0  0  0  0  0  0  0  0  0
   24.0220   11.2850   24.4830 O   0  0  0  0  0  0  0  0  0  0  0  0
   22.9490   12.6100   26.0910 C   0  0  0  0  0  0  0  0  0  0  0  0
   21.8950   11.8200   26.5170 C   0  0  0  0  0  0  0  0  0  0  0  0
   21.3690   12.0770   27.7700 C   0  0  0  0  0  0  0  0  0  0  0  0
   21.9010   13.0900   28.5450 C   0  0  0  0  0  0  0  0  0  0  0  0
   21.4170   13.3830   29.7640 F   0  0  0  0  0  0  0  0  0  0  0  0
   22.9450   13.8260   28.0320 C   0  0  0  0  0  0  0  0  0  0  0  0
   23.4720   13.6040   26.8170 N   0  0  0  0  0  0  0  0  0  0  0  0
   23.7260   13.0680   21.5050 C   0  0  0  0  0  0  0  0  0  0  0  0
   24.4480   13.2780   20.3430 C   0  0  0  0  0  0  0  0  0  0  0  0
   25.6150   14.0150   20.3560 C   0  0  0  0  0  0  0  0  0  0  0  0
   26.3200   14.1810   19.2070 F   0  0  0  0  0  0  0  0  0  0  0  0
   28.6400   14.6910   21.2700 C   0  0  0  0  0  0  0  0  0  0  0  0
   28.9330   13.4910   22.5440 S   0  0  0  0  0  0  0  0  0  0  0  0
   30.3710   13.3020   22.6130 O   0  0  0  0  0  0  0  0  0  0  0  0
   27.9840   12.4230   22.4910 O   0  0  0  0  0  0  0  0  0  0  0  0
   28.4922   14.3501   26.0552 H   0  0  0  0  0  0  0  0  0  0  0  0
   28.4538   12.7370   25.2658 H   0  0  0  0  0  0  0  0  0  0  0  0
   29.9695   13.7010   25.2658 H   0  0  0  0  0  0  0  0  0  0  0  0
   27.6350   17.2980   25.0970 H   0  0  0  0  0  0  0  0  0  0  0  0
   28.3530   15.9490   25.8540 H   0  0  0  0  0  0  0  0  0  0  0  0
   27.1562   17.5226   20.9469 H   0  0  0  0  0  0  0  0  0  0  0  0
   28.1568   16.5257   19.8371 H   0  0  0  0  0  0  0  0  0  0  0  0
   26.3692   16.3497   19.8371 H   0  0  0  0  0  0  0  0  0  0  0  0
   25.7038   14.8328   23.6176 H   0  0  0  0  0  0  0  0  0  0  0  0
   23.0440   14.2620   24.2240 H   0  0  0  0  0  0  0  0  0  0  0  0
   21.4908   11.0176   25.8824 H   0  0  0  0  0  0  0  0  0  0  0  0
   20.5290   11.4764   28.1489 H   0  0  0  0  0  0  0  0  0  0  0  0
   23.3677   14.6345   28.6466 H   0  0  0  0  0  0  0  0  0  0  0  0
   22.7990   12.4759   21.4971 H   0  0  0  0  0  0  0  0  0  0  0  0
   24.0867   12.8515   19.3956 H   0  0  0  0  0  0  0  0  0  0  0  0
   28.5590   14.1766   20.3011 H   0  0  0  0  0  0  0  0  0  0  0  0
   29.4784   15.4030   21.2549 H   0  0  0  0  0  0  0  0  0  0  0  0
  1  2  1  0
  2  3  1  0
  3  4  1  0
  3  5  2  0
  5  6  1  0
  6  7  1  6
  6  8  1  0
  8  9  2  0
  9 10  1  0
 10 11  1  0
 11 12  1  0
 12 13  2  0
 12 14  1  0
 14 15  2  0
 15 16  1  0
 16 17  2  0
 17 18  1  0
 17 19  1  0
 19 20  2  0
 10 21  2  0
 21 22  1  0
 22 23  2  0
 23 24  1  0
  6 25  1  0
 25 26  1  0
 26 27  2  0
 26 28  2  0
 26  2  1  0
 23  8  1  0
 20 14  1  0
  1 29  1  0
  1 30  1  0
  1 31  1  0
  4 32  1  0
  4 33  1  0
  7 34  1  0
  7 35  1  0
  7 36  1  0
  9 37  1  0
 11 38  1  0
 15 39  1  0
 16 40  1  0
 19 41  1  0
 21 42  1  0
 22 43  1  0
 25 44  1  0
 25 45  1  0
M  END
>  <meeko>  (15)
{"is_sidechain": false}

>  <source_group>  (15)
BACE1-476

>  <source_system>  (15)
BACE1_verubecestat

>  <source_run>  (15)
alternate_476_seed2207_ex32

>  <source_seed>  (15)
2207

>  <vina_pose_rank>  (15)
15

>  <vina_affinity_kcal_mol>  (15)
-7.1890000000000001

>  <vina_rmsd_to_crystal_angstrom>  (15)
7.8442999999999996

$$$$
BACE1_verubecestat__alternate_476_seed2207_ex32__pose16
     RDKit          3D

 45 47  0  0  0  0  0  0  0  0999 V2000
   28.8160   10.1540   21.6860 C   0  0  0  0  0  0  0  0  0  0  0  0
   28.3320   11.5470   21.6120 N   0  0  0  0  0  0  0  0  0  0  0  0
   29.1780   12.6660   21.7730 C   0  0  0  0  0  0  0  0  0  0  0  0
   30.5080   12.3500   21.8500 N   0  0  0  0  0  0  0  0  0  0  0  0
   28.7540   13.8910   21.8190 N   0  0  0  0  0  0  0  0  0  0  0  0
   27.3270   14.2100   21.8300 C   0  0  2  0  0  0  0  0  0  0  0  0
   27.3020   15.6830   21.4150 C   0  0  0  0  0  0  0  0  0  0  0  0
   26.7250   14.0810   23.2210 C   0  0  0  0  0  0  0  0  0  0  0  0
   25.4100   13.6560   23.3990 C   0  0  0  0  0  0  0  0  0  0  0  0
   24.8380   13.5330   24.6450 C   0  0  0  0  0  0  0  0  0  0  0  0
   23.5080   13.0930   24.6860 N   0  0  0  0  0  0  0  0  0  0  0  0
   23.0300   11.8420   25.0300 C   0  0  0  0  0  0  0  0  0  0  0  0
   23.7240   10.8550   25.2370 O   0  0  0  0  0  0  0  0  0  0  0  0
   21.5580   11.7460   25.1810 C   0  0  0  0  0  0  0  0  0  0  0  0
   20.7970   12.8990   25.2790 C   0  0  0  0  0  0  0  0  0  0  0  0
   19.4280   12.7510   25.4200 C   0  0  0  0  0  0  0  0  0  0  0  0
   18.8730   11.4870   25.4550 C   0  0  0  0  0  0  0  0  0  0  0  0
   17.5510   11.2940   25.6000 F   0  0  0  0  0  0  0  0  0  0  0  0
   19.7130   10.4010   25.3560 C   0  0  0  0  0  0  0  0  0  0  0  0
   21.0450   10.5120   25.2240 N   0  0  0  0  0  0  0  0  0  0  0  0
   25.5760   13.8140   25.7890 C   0  0  0  0  0  0  0  0  0  0  0  0
   26.8830   14.2410   25.6300 C   0  0  0  0  0  0  0  0  0  0  0  0
   27.4330   14.3900   24.3730 C   0  0  0  0  0  0  0  0  0  0  0  0
   28.7080   14.8380   24.2440 F   0  0  0  0  0  0  0  0  0  0  0  0
   26.6130   13.4320   20.7480 C   0  0  0  0  0  0  0  0  0  0  0  0
   26.7060   11.6870   21.0640 S   0  0  0  0  0  0  0  0  0  0  0  0
   26.6290   11.0280   19.7730 O   0  0  0  0  0  0  0  0  0  0  0  0
   25.9270   11.3160   22.2040 O   0  0  0  0  0  0  0  0  0  0  0  0
   28.9191    9.8572   22.7402 H   0  0  0  0  0  0  0  0  0  0  0  0
   28.0963    9.4888   21.1865 H   0  0  0  0  0  0  0  0  0  0  0  0
   29.7931   10.0783   21.1865 H   0  0  0  0  0  0  0  0  0  0  0  0
   31.1780   13.0630   21.9620 H   0  0  0  0  0  0  0  0  0  0  0  0
   30.7950   11.4100   21.7930 H   0  0  0  0  0  0  0  0  0  0  0  0
   27.2912   16.3170   22.3138 H   0  0  0  0  0  0  0  0  0  0  0  0
   28.1964   15.9105   20.8165 H   0  0  0  0  0  0  0  0  0  0  0  0
   26.4004   15.8801   20.8165 H   0  0  0  0  0  0  0  0  0  0  0  0
   24.8075   13.4100   22.5122 H   0  0  0  0  0  0  0  0  0  0  0  0
   22.8280   13.7610   24.4380 H   0  0  0  0  0  0  0  0  0  0  0  0
   21.2630   13.8949   25.2460 H   0  0  0  0  0  0  0  0  0  0  0  0
   18.7835   13.6384   25.5040 H   0  0  0  0  0  0  0  0  0  0  0  0
   19.2721    9.3937   25.3865 H   0  0  0  0  0  0  0  0  0  0  0  0
   25.1347   13.7005   26.7902 H   0  0  0  0  0  0  0  0  0  0  0  0
   27.4921   14.4648   26.5182 H   0  0  0  0  0  0  0  0  0  0  0  0
   25.5568   13.7381   20.7203 H   0  0  0  0  0  0  0  0  0  0  0  0
   27.0970   13.6429   19.7830 H   0  0  0  0  0  0  0  0  0  0  0  0
  1  2  1  0
  2  3  1  0
  3  4  1  0
  3  5  2  0
  5  6  1  0
  6  7  1  6
  6  8  1  0
  8  9  2  0
  9 10  1  0
 10 11  1  0
 11 12  1  0
 12 13  2  0
 12 14  1  0
 14 15  2  0
 15 16  1  0
 16 17  2  0
 17 18  1  0
 17 19  1  0
 19 20  2  0
 10 21  2  0
 21 22  1  0
 22 23  2  0
 23 24  1  0
  6 25  1  0
 25 26  1  0
 26 27  2  0
 26 28  2  0
 26  2  1  0
 23  8  1  0
 20 14  1  0
  1 29  1  0
  1 30  1  0
  1 31  1  0
  4 32  1  0
  4 33  1  0
  7 34  1  0
  7 35  1  0
  7 36  1  0
  9 37  1  0
 11 38  1  0
 15 39  1  0
 16 40  1  0
 19 41  1  0
 21 42  1  0
 22 43  1  0
 25 44  1  0
 25 45  1  0
M  END
>  <meeko>  (16)
{"is_sidechain": false}

>  <source_group>  (16)
BACE1-476

>  <source_system>  (16)
BACE1_verubecestat

>  <source_run>  (16)
alternate_476_seed2207_ex32

>  <source_seed>  (16)
2207

>  <vina_pose_rank>  (16)
16

>  <vina_affinity_kcal_mol>  (16)
-7.1470000000000002

>  <vina_rmsd_to_crystal_angstrom>  (16)
8.2786000000000008

$$$$
BACE1_verubecestat__alternate_476_seed2207_ex32__pose17
     RDKit          3D

 45 47  0  0  0  0  0  0  0  0999 V2000
   24.8140   11.6270   19.2550 C   0  0  0  0  0  0  0  0  0  0  0  0
   24.7960   12.3460   20.5450 N   0  0  0  0  0  0  0  0  0  0  0  0
   24.0210   13.5050   20.7690 C   0  0  0  0  0  0  0  0  0  0  0  0
   23.1750   13.8160   19.7380 N   0  0  0  0  0  0  0  0  0  0  0  0
   24.0750   14.2110   21.8560 N   0  0  0  0  0  0  0  0  0  0  0  0
   25.0490   13.9250   22.9090 C   0  0  2  0  0  0  0  0  0  0  0  0
   24.4580   14.6410   24.1260 C   0  0  0  0  0  0  0  0  0  0  0  0
   26.4130   14.5240   22.6020 C   0  0  0  0  0  0  0  0  0  0  0  0
   26.6730   15.1310   21.3740 C   0  0  0  0  0  0  0  0  0  0  0  0
   27.8980   15.6790   21.0680 C   0  0  0  0  0  0  0  0  0  0  0  0
   28.0270   16.2610   19.8010 N   0  0  0  0  0  0  0  0  0  0  0  0
   28.2080   17.5960   19.4850 C   0  0  0  0  0  0  0  0  0  0  0  0
   28.1560   18.5220   20.2830 O   0  0  0  0  0  0  0  0  0  0  0  0
   28.5220   17.8730   18.0620 C   0  0  0  0  0  0  0  0  0  0  0  0
   27.4970   18.1130   17.1630 C   0  0  0  0  0  0  0  0  0  0  0  0
   27.8470   18.3640   15.8480 C   0  0  0  0  0  0  0  0  0  0  0  0
   29.1780   18.3710   15.4790 C   0  0  0  0  0  0  0  0  0  0  0  0
   29.5650   18.6000   14.2120 F   0  0  0  0  0  0  0  0  0  0  0  0
   30.1250   18.1150   16.4440 C   0  0  0  0  0  0  0  0  0  0  0  0
   29.8160   17.8620   17.7270 N   0  0  0  0  0  0  0  0  0  0  0  0
   28.9280   15.6630   22.0000 C   0  0  0  0  0  0  0  0  0  0  0  0
   28.6890   15.0610   23.2230 C   0  0  0  0  0  0  0  0  0  0  0  0
   27.4650   14.4880   23.5040 C   0  0  0  0  0  0  0  0  0  0  0  0
   27.2660   13.8770   24.7010 F   0  0  0  0  0  0  0  0  0  0  0  0
   25.0550   12.4460   23.2240 C   0  0  0  0  0  0  0  0  0  0  0  0
   25.5960   11.5080   21.8180 S   0  0  0  0  0  0  0  0  0  0  0  0
   24.9750   10.2000   21.9290 O   0  0  0  0  0  0  0  0  0  0  0  0
   26.9840   11.7180   21.5460 O   0  0  0  0  0  0  0  0  0  0  0  0
   24.8411   10.5430   19.4398 H   0  0  0  0  0  0  0  0  0  0  0  0
   23.9093   11.8788   18.6822 H   0  0  0  0  0  0  0  0  0  0  0  0
   25.7050   11.9237   18.6822 H   0  0  0  0  0  0  0  0  0  0  0  0
   22.5930   14.6070   19.8010 H   0  0  0  0  0  0  0  0  0  0  0  0
   23.1480   13.2470   18.9350 H   0  0  0  0  0  0  0  0  0  0  0  0
   24.8413   14.1766   25.0465 H   0  0  0  0  0  0  0  0  0  0  0  0
   24.7466   15.7022   24.1030 H   0  0  0  0  0  0  0  0  0  0  0  0
   23.3613   14.5587   24.1030 H   0  0  0  0  0  0  0  0  0  0  0  0
   25.8705   15.1735   20.6229 H   0  0  0  0  0  0  0  0  0  0  0  0
   27.9830   15.6410   19.0370 H   0  0  0  0  0  0  0  0  0  0  0  0
   26.4443   18.1045   17.4819 H   0  0  0  0  0  0  0  0  0  0  0  0
   27.0664   18.5577   15.0976 H   0  0  0  0  0  0  0  0  0  0  0  0
   31.1853   18.1176   16.1512 H   0  0  0  0  0  0  0  0  0  0  0  0
   29.9046   16.1154   21.7727 H   0  0  0  0  0  0  0  0  0  0  0  0
   29.4853   15.0388   23.9815 H   0  0  0  0  0  0  0  0  0  0  0  0
   25.7366   12.2590   24.0669 H   0  0  0  0  0  0  0  0  0  0  0  0
   24.0323   12.1355   23.4843 H   0  0  0  0  0  0  0  0  0  0  0  0
  1  2  1  0
  2  3  1  0
  3  4  1  0
  3  5  2  0
  5  6  1  0
  6  7  1  1
  6  8  1  0
  8  9  2  0
  9 10  1  0
 10 11  1  0
 11 12  1  0
 12 13  2  0
 12 14  1  0
 14 15  2  0
 15 16  1  0
 16 17  2  0
 17 18  1  0
 17 19  1  0
 19 20  2  0
 10 21  2  0
 21 22  1  0
 22 23  2  0
 23 24  1  0
  6 25  1  0
 25 26  1  0
 26 27  2  0
 26 28  2  0
 26  2  1  0
 23  8  1  0
 20 14  1  0
  1 29  1  0
  1 30  1  0
  1 31  1  0
  4 32  1  0
  4 33  1  0
  7 34  1  0
  7 35  1  0
  7 36  1  0
  9 37  1  0
 11 38  1  0
 15 39  1  0
 16 40  1  0
 19 41  1  0
 21 42  1  0
 22 43  1  0
 25 44  1  0
 25 45  1  0
M  END
>  <meeko>  (17)
{"is_sidechain": false}

>  <source_group>  (17)
BACE1-476

>  <source_system>  (17)
BACE1_verubecestat

>  <source_run>  (17)
alternate_476_seed2207_ex32

>  <source_seed>  (17)
2207

>  <vina_pose_rank>  (17)
17

>  <vina_affinity_kcal_mol>  (17)
-7.0640000000000001

>  <vina_rmsd_to_crystal_angstrom>  (17)
7.7380000000000004

$$$$
BACE1_verubecestat__alternate_476_seed2207_ex32__pose18
     RDKit          3D

 45 47  0  0  0  0  0  0  0  0999 V2000
   15.2470   15.0600   27.8150 C   0  0  0  0  0  0  0  0  0  0  0  0
   15.7950   13.9200   27.0550 N   0  0  0  0  0  0  0  0  0  0  0  0
   15.5750   12.5730   27.4210 C   0  0  0  0  0  0  0  0  0  0  0  0
   14.6860   12.4160   28.4500 N   0  0  0  0  0  0  0  0  0  0  0  0
   16.1370   11.5640   26.8300 N   0  0  0  0  0  0  0  0  0  0  0  0
   17.1550   11.7470   25.7980 C   0  0  2  0  0  0  0  0  0  0  0  0
   17.1690   10.3920   25.0850 C   0  0  0  0  0  0  0  0  0  0  0  0
   18.5310   12.0040   26.3920 C   0  0  0  0  0  0  0  0  0  0  0  0
   19.5910   12.4330   25.5950 C   0  0  0  0  0  0  0  0  0  0  0  0
   20.8470   12.6710   26.1060 C   0  0  0  0  0  0  0  0  0  0  0  0
   21.8230   13.1010   25.1970 N   0  0  0  0  0  0  0  0  0  0  0  0
   22.5970   12.3350   24.3440 C   0  0  0  0  0  0  0  0  0  0  0  0
   22.6420   11.1120   24.3400 O   0  0  0  0  0  0  0  0  0  0  0  0
   23.3910   13.1000   23.3520 C   0  0  0  0  0  0  0  0  0  0  0  0
   23.4290   12.6870   22.0310 C   0  0  0  0  0  0  0  0  0  0  0  0
   24.1870   13.4360   21.1480 C   0  0  0  0  0  0  0  0  0  0  0  0
   24.8670   14.5510   21.6000 C   0  0  0  0  0  0  0  0  0  0  0  0
   25.6230   15.3030   20.7820 F   0  0  0  0  0  0  0  0  0  0  0  0
   24.7730   14.8780   22.9340 C   0  0  0  0  0  0  0  0  0  0  0  0
   24.0500   14.1670   23.8150 N   0  0  0  0  0  0  0  0  0  0  0  0
   21.0970   12.5080   27.4620 C   0  0  0  0  0  0  0  0  0  0  0  0
   20.0580   12.0780   28.2680 C   0  0  0  0  0  0  0  0  0  0  0  0
   18.8110   11.8130   27.7370 C   0  0  0  0  0  0  0  0  0  0  0  0
   17.8160   11.3650   28.5440 F   0  0  0  0  0  0  0  0  0  0  0  0
   16.6920   12.7740   24.7880 C   0  0  0  0  0  0  0  0  0  0  0  0
   16.5060   14.3650   25.5520 S   0  0  0  0  0  0  0  0  0  0  0  0
   15.4940   15.0740   24.7900 O   0  0  0  0  0  0  0  0  0  0  0  0
   17.7700   14.9230   25.9230 O   0  0  0  0  0  0  0  0  0  0  0  0
   15.3422   14.8619   28.8928 H   0  0  0  0  0  0  0  0  0  0  0  0
   15.8046   15.9731   27.5594 H   0  0  0  0  0  0  0  0  0  0  0  0
   14.1856   15.1949   27.5594 H   0  0  0  0  0  0  0  0  0  0  0  0
   14.4670   11.5130   28.7770 H   0  0  0  0  0  0  0  0  0  0  0  0
   14.2650   13.2050   28.8630 H   0  0  0  0  0  0  0  0  0  0  0  0
   17.1773    9.5846   25.8321 H   0  0  0  0  0  0  0  0  0  0  0  0
   16.2718   10.2997   24.4554 H   0  0  0  0  0  0  0  0  0  0  0  0
   18.0680   10.3183   24.4554 H   0  0  0  0  0  0  0  0  0  0  0  0
   19.4178   12.5868   24.5197 H   0  0  0  0  0  0  0  0  0  0  0  0
   21.9770   14.0730   25.1610 H   0  0  0  0  0  0  0  0  0  0  0  0
   22.8771   11.7965   21.6958 H   0  0  0  0  0  0  0  0  0  0  0  0
   24.2481   13.1446   20.0891 H   0  0  0  0  0  0  0  0  0  0  0  0
   25.3158   15.7637   23.2957 H   0  0  0  0  0  0  0  0  0  0  0  0
   22.0920   12.7147   27.8831 H   0  0  0  0  0  0  0  0  0  0  0  0
   20.2275   11.9454   29.3467 H   0  0  0  0  0  0  0  0  0  0  0  0
   17.4347   12.8461   23.9798 H   0  0  0  0  0  0  0  0  0  0  0  0
   15.7183   12.4593   24.3844 H   0  0  0  0  0  0  0  0  0  0  0  0
  1  2  1  0
  2  3  1  0
  3  4  1  0
  3  5  2  0
  5  6  1  0
  6  7  1  6
  6  8  1  0
  8  9  2  0
  9 10  1  0
 10 11  1  0
 11 12  1  0
 12 13  2  0
 12 14  1  0
 14 15  2  0
 15 16  1  0
 16 17  2  0
 17 18  1  0
 17 19  1  0
 19 20  2  0
 10 21  2  0
 21 22  1  0
 22 23  2  0
 23 24  1  0
  6 25  1  0
 25 26  1  0
 26 27  2  0
 26 28  2  0
 26  2  1  0
 23  8  1  0
 20 14  1  0
  1 29  1  0
  1 30  1  0
  1 31  1  0
  4 32  1  0
  4 33  1  0
  7 34  1  0
  7 35  1  0
  7 36  1  0
  9 37  1  0
 11 38  1  0
 15 39  1  0
 16 40  1  0
 19 41  1  0
 21 42  1  0
 22 43  1  0
 25 44  1  0
 25 45  1  0
M  END
>  <meeko>  (18)
{"is_sidechain": false}

>  <source_group>  (18)
BACE1-476

>  <source_system>  (18)
BACE1_verubecestat

>  <source_run>  (18)
alternate_476_seed2207_ex32

>  <source_seed>  (18)
2207

>  <vina_pose_rank>  (18)
18

>  <vina_affinity_kcal_mol>  (18)
-7.0270000000000001

>  <vina_rmsd_to_crystal_angstrom>  (18)
7.6574

$$$$
BACE1_verubecestat__alternate_476_seed2207_ex32__pose19
     RDKit          3D

 45 47  0  0  0  0  0  0  0  0999 V2000
   25.4730   11.9840   18.9690 C   0  0  0  0  0  0  0  0  0  0  0  0
   24.7770   12.2960   20.2320 N   0  0  0  0  0  0  0  0  0  0  0  0
   23.9310   13.4160   20.3890 C   0  0  0  0  0  0  0  0  0  0  0  0
   23.6940   14.1000   19.2270 N   0  0  0  0  0  0  0  0  0  0  0  0
   23.3980   13.7660   21.5190 N   0  0  0  0  0  0  0  0  0  0  0  0
   23.7330   13.0860   22.7690 C   0  0  2  0  0  0  0  0  0  0  0  0
   22.5760   13.4770   23.6930 C   0  0  0  0  0  0  0  0  0  0  0  0
   25.0340   13.5990   23.3670 C   0  0  0  0  0  0  0  0  0  0  0  0
   25.9060   14.3900   22.6220 C   0  0  0  0  0  0  0  0  0  0  0  0
   27.0910   14.8660   23.1360 C   0  0  0  0  0  0  0  0  0  0  0  0
   27.8750   15.6530   22.2830 N   0  0  0  0  0  0  0  0  0  0  0  0
   29.2250   15.5330   22.0070 C   0  0  0  0  0  0  0  0  0  0  0  0
   29.9970   14.7770   22.5810 O   0  0  0  0  0  0  0  0  0  0  0  0
   29.7230   16.3840   20.8980 C   0  0  0  0  0  0  0  0  0  0  0  0
   28.8280   17.0990   20.1210 C   0  0  0  0  0  0  0  0  0  0  0  0
   29.3470   17.8740   19.0990 C   0  0  0  0  0  0  0  0  0  0  0  0
   30.7120   17.9140   18.8900 C   0  0  0  0  0  0  0  0  0  0  0  0
   31.2610   18.6450   17.9050 F   0  0  0  0  0  0  0  0  0  0  0  0
   31.5210   17.1630   19.7130 C   0  0  0  0  0  0  0  0  0  0  0  0
   31.0460   16.3970   20.7090 N   0  0  0  0  0  0  0  0  0  0  0  0
   27.4510   14.5850   24.4480 C   0  0  0  0  0  0  0  0  0  0  0  0
   26.5980   13.7980   25.2020 C   0  0  0  0  0  0  0  0  0  0  0  0
   25.4290   13.3010   24.6620 C   0  0  0  0  0  0  0  0  0  0  0  0
   24.6240   12.5070   25.4140 F   0  0  0  0  0  0  0  0  0  0  0  0
   23.6620   11.5870   22.5800 C   0  0  0  0  0  0  0  0  0  0  0  0
   24.8820   11.0440   21.4100 S   0  0  0  0  0  0  0  0  0  0  0  0
   24.3600    9.8350   20.7990 O   0  0  0  0  0  0  0  0  0  0  0  0
   26.2070   11.1750   21.9300 O   0  0  0  0  0  0  0  0  0  0  0  0
   26.4561   11.5433   19.1913 H   0  0  0  0  0  0  0  0  0  0  0  0
   24.8735   11.2685   18.3871 H   0  0  0  0  0  0  0  0  0  0  0  0
   25.6083   12.9076   18.3871 H   0  0  0  0  0  0  0  0  0  0  0  0
   23.1160   14.8970   19.2340 H   0  0  0  0  0  0  0  0  0  0  0  0
   24.1010   13.7950   18.3840 H   0  0  0  0  0  0  0  0  0  0  0  0
   22.8918   13.3703   24.7413 H   0  0  0  0  0  0  0  0  0  0  0  0
   22.2901   14.5217   23.5007 H   0  0  0  0  0  0  0  0  0  0  0  0
   21.7150   12.8199   23.5007 H   0  0  0  0  0  0  0  0  0  0  0  0
   25.6379   14.6433   21.5857 H   0  0  0  0  0  0  0  0  0  0  0  0
   27.4050   16.3840   21.8200 H   0  0  0  0  0  0  0  0  0  0  0  0
   27.7452   17.0528   20.3089 H   0  0  0  0  0  0  0  0  0  0  0  0
   28.6737   18.4575   18.4538 H   0  0  0  0  0  0  0  0  0  0  0  0
   32.6080   17.1917   19.5470 H   0  0  0  0  0  0  0  0  0  0  0  0
   28.3862   14.9764   24.8749 H   0  0  0  0  0  0  0  0  0  0  0  0
   26.8552   13.5654   26.2459 H   0  0  0  0  0  0  0  0  0  0  0  0
   23.8424   11.0923   23.5458 H   0  0  0  0  0  0  0  0  0  0  0  0
   22.6642   11.3254   22.1979 H   0  0  0  0  0  0  0  0  0  0  0  0
  1  2  1  0
  2  3  1  0
  3  4  1  0
  3  5  2  0
  5  6  1  0
  6  7  1  1
  6  8  1  0
  8  9  2  0
  9 10  1  0
 10 11  1  0
 11 12  1  0
 12 13  2  0
 12 14  1  0
 14 15  2  0
 15 16  1  0
 16 17  2  0
 17 18  1  0
 17 19  1  0
 19 20  2  0
 10 21  2  0
 21 22  1  0
 22 23  2  0
 23 24  1  0
  6 25  1  0
 25 26  1  0
 26 27  2  0
 26 28  2  0
 26  2  1  0
 23  8  1  0
 20 14  1  0
  1 29  1  0
  1 30  1  0
  1 31  1  0
  4 32  1  0
  4 33  1  0
  7 34  1  0
  7 35  1  0
  7 36  1  0
  9 37  1  0
 11 38  1  0
 15 39  1  0
 16 40  1  0
 19 41  1  0
 21 42  1  0
 22 43  1  0
 25 44  1  0
 25 45  1  0
M  END
>  <meeko>  (19)
{"is_sidechain": false}

>  <source_group>  (19)
BACE1-476

>  <source_system>  (19)
BACE1_verubecestat

>  <source_run>  (19)
alternate_476_seed2207_ex32

>  <source_seed>  (19)
2207

>  <vina_pose_rank>  (19)
19

>  <vina_affinity_kcal_mol>  (19)
-7.0179999999999998

>  <vina_rmsd_to_crystal_angstrom>  (19)
6.5749000000000004

$$$$
