BACE1_verubecestat__alternate_476_seed2207_ex32__pose01


 31 33  0  0  0  0  0  0  0  0999 V2000
   24.7270   12.4910   21.0430 C   0  0  0  0  0  0  0  0  0  0  0  0
   24.0340   12.2470   22.2280 C   0  0  0  0  0  0  0  0  0  0  0  0
   23.3990   11.0520   22.4760 C   0  0  0  0  0  0  0  0  0  0  0  0
   23.4110   10.0380   21.5260 C   0  0  0  0  0  0  0  0  0  0  0  0
   24.0970   10.2610   20.3460 C   0  0  0  0  0  0  0  0  0  0  0  0
   24.7570   11.4540   20.1240 C   0  0  0  0  0  0  0  0  0  0  0  0
   25.4480   11.6370   18.9690 F   0  0  0  0  0  0  0  0  0  0  0  0
   27.6390   13.7780   24.5090 C   0  0  0  0  0  0  0  0  0  0  0  0
   26.9550   13.8880   23.2060 N   0  0  0  0  0  0  0  0  0  0  0  0
   25.8550   14.7460   22.9840 C   0  0  0  0  0  0  0  0  0  0  0  0
   25.5750   15.5740   24.0370 N   0  0  0  0  0  0  0  0  0  0  0  0
   25.1740   14.7760   21.8800 N   0  0  0  0  0  0  0  0  0  0  0  0
   25.4210   13.8220   20.7990 C   0  0  0  0  0  0  0  0  0  0  0  0
   24.7760   14.5020   19.5880 C   0  0  0  0  0  0  0  0  0  0  0  0
   26.9040   13.7290   20.5170 C   0  0  0  0  0  0  0  0  0  0  0  0
   27.7700   13.0790   21.9240 S   0  0  0  0  0  0  0  0  0  0  0  0
   29.1180   13.6160   21.8640 O   0  0  0  0  0  0  0  0  0  0  0  0
   27.4640   11.7000   22.1400 O   0  0  0  0  0  0  0  0  0  0  0  0
   24.8250   16.2090   23.9780 H   0  0  0  0  0  0  0  0  0  0  0  0
   26.1240   15.5360   24.8540 H   0  0  0  0  0  0  0  0  0  0  0  0
   22.7360   10.9370   23.7050 N   0  0  0  0  0  0  0  0  0  0  0  0
   23.2280   11.1940   24.9720 C   0  0  0  0  0  0  0  0  0  0  0  0
   24.3960   11.4490   25.2360 O   0  0  0  0  0  0  0  0  0  0  0  0
   21.8000   10.6340   23.6610 H   0  0  0  0  0  0  0  0  0  0  0  0
   22.2180   11.1830   26.0580 C   0  0  0  0  0  0  0  0  0  0  0  0
   20.9210   10.7800   25.7910 C   0  0  0  0  0  0  0  0  0  0  0  0
   20.0190   10.7910   26.8410 C   0  0  0  0  0  0  0  0  0  0  0  0
   20.4310   11.1920   28.0980 C   0  0  0  0  0  0  0  0  0  0  0  0
   19.5890   11.2280   29.1450 F   0  0  0  0  0  0  0  0  0  0  0  0
   21.7410   11.5810   28.2630 C   0  0  0  0  0  0  0  0  0  0  0  0
   22.6370   11.5860   27.2620 N   0  0  0  0  0  0  0  0  0  0  0  0
  8  9  1  0
  9 10  1  0
 10 11  1  0
 10 12  2  0
 12 13  1  0
 13 14  1  0
 13  1  1  0
  1  2  2  0
  2  3  1  0
  3 21  1  0
 21 22  1  0
 22 23  2  0
 22 25  1  0
 25 26  2  0
 26 27  1  0
 27 28  2  0
 28 29  1  0
 28 30  1  0
 30 31  2  0
  3  4  2  0
  4  5  1  0
  5  6  2  0
  6  7  1  0
 13 15  1  0
 15 16  1  0
 16 17  2  0
 16 18  2  0
 16  9  1  0
  6  1  1  0
 31 25  1  0
 11 19  1  0
 11 20  1  0
 21 24  1  0
M  END
> <meeko>
{"is_sidechain": false}

> <source_group>
BACE1-476

> <source_system>
BACE1_verubecestat

> <source_run>
alternate_476_seed2207_ex32

> <source_seed>
2207

> <vina_pose_rank>
1

> <vina_affinity_kcal_mol>
-9.1820000000000004

> <vina_rmsd_to_crystal_angstrom>
7.1181000000000001

> <minimizedAffinity>
-9.18178

> <CNNscore>
0.1193564609

> <CNNaffinity>
5.7101635933

> <CNN_VS>
0.6815448999

> <CNNaffinity_variance>
0.5683443546

$$$$
BACE1_verubecestat__alternate_476_seed2207_ex32__pose02


 31 33  0  0  0  0  0  0  0  0999 V2000
   24.7660   12.3850   21.2950 C   0  0  0  0  0  0  0  0  0  0  0  0
   24.2920   12.4750   22.6030 C   0  0  0  0  0  0  0  0  0  0  0  0
   23.4290   11.5460   23.1390 C   0  0  0  0  0  0  0  0  0  0  0  0
   22.9770   10.4800   22.3710 C   0  0  0  0  0  0  0  0  0  0  0  0
   23.4400   10.3730   21.0720 C   0  0  0  0  0  0  0  0  0  0  0  0
   24.3300   11.2950   20.5570 C   0  0  0  0  0  0  0  0  0  0  0  0
   24.7920   11.1510   19.2890 F   0  0  0  0  0  0  0  0  0  0  0  0
   28.5940   13.0780   23.9440 C   0  0  0  0  0  0  0  0  0  0  0  0
   27.6990   13.2630   22.7840 N   0  0  0  0  0  0  0  0  0  0  0  0
   26.8470   14.3800   22.6400 C   0  0  0  0  0  0  0  0  0  0  0  0
   27.0340   15.3480   23.5900 N   0  0  0  0  0  0  0  0  0  0  0  0
   25.9780   14.5060   21.6850 N   0  0  0  0  0  0  0  0  0  0  0  0
   25.7210   13.4260   20.7330 C   0  0  0  0  0  0  0  0  0  0  0  0
   25.0350   14.1500   19.5710 C   0  0  0  0  0  0  0  0  0  0  0  0
   27.0280   12.8780   20.2040 C   0  0  0  0  0  0  0  0  0  0  0  0
   27.9710   12.1350   21.5120 S   0  0  0  0  0  0  0  0  0  0  0  0
   29.3670   12.2470   21.1300 O   0  0  0  0  0  0  0  0  0  0  0  0
   27.3600   10.9320   21.9850 O   0  0  0  0  0  0  0  0  0  0  0  0
   26.4870   16.1660   23.5730 H   0  0  0  0  0  0  0  0  0  0  0  0
   27.7160   15.2270   24.2890 H   0  0  0  0  0  0  0  0  0  0  0  0
   23.0270   11.7540   24.4650 N   0  0  0  0  0  0  0  0  0  0  0  0
   22.0890   12.6510   24.9460 C   0  0  0  0  0  0  0  0  0  0  0  0
   21.5390   13.5180   24.2800 O   0  0  0  0  0  0  0  0  0  0  0  0
   23.4680   11.1900   25.1410 H   0  0  0  0  0  0  0  0  0  0  0  0
   21.7310   12.4860   26.3750 C   0  0  0  0  0  0  0  0  0  0  0  0
   20.4020   12.3660   26.7450 C   0  0  0  0  0  0  0  0  0  0  0  0
   20.1240   12.2180   28.0920 C   0  0  0  0  0  0  0  0  0  0  0  0
   21.1580   12.1900   29.0090 C   0  0  0  0  0  0  0  0  0  0  0  0
   20.9360   12.0570   30.3270 F   0  0  0  0  0  0  0  0  0  0  0  0
   22.4460   12.3230   28.5440 C   0  0  0  0  0  0  0  0  0  0  0  0
   22.7470   12.4750   27.2440 N   0  0  0  0  0  0  0  0  0  0  0  0
  8  9  1  0
  9 10  1  0
 10 11  1  0
 10 12  2  0
 12 13  1  0
 13 14  1  0
 13  1  1  0
  1  2  2  0
  2  3  1  0
  3 21  1  0
 21 22  1  0
 22 23  2  0
 22 25  1  0
 25 26  2  0
 26 27  1  0
 27 28  2  0
 28 29  1  0
 28 30  1  0
 30 31  2  0
  3  4  2  0
  4  5  1  0
  5  6  2  0
  6  7  1  0
 13 15  1  0
 15 16  1  0
 16 17  2  0
 16 18  2  0
 16  9  1  0
  6  1  1  0
 31 25  1  0
 11 19  1  0
 11 20  1  0
 21 24  1  0
M  END
> <meeko>
{"is_sidechain": false}

> <source_group>
BACE1-476

> <source_system>
BACE1_verubecestat

> <source_run>
alternate_476_seed2207_ex32

> <source_seed>
2207

> <vina_pose_rank>
2

> <vina_affinity_kcal_mol>
-8.7089999999999996

> <vina_rmsd_to_crystal_angstrom>
7.4482999999999997

> <minimizedAffinity>
-8.64782

> <CNNscore>
0.2375306040

> <CNNaffinity>
6.1529936790

> <CNN_VS>
1.4615242481

> <CNNaffinity_variance>
0.3177704811

$$$$
BACE1_verubecestat__alternate_476_seed2207_ex32__pose03


 31 33  0  0  0  0  0  0  0  0999 V2000
   26.9110   13.1110   22.9470 C   0  0  0  0  0  0  0  0  0  0  0  0
   25.8330   12.7320   23.7460 C   0  0  0  0  0  0  0  0  0  0  0  0
   25.6420   13.2350   25.0120 C   0  0  0  0  0  0  0  0  0  0  0  0
   26.5480   14.1380   25.5540 C   0  0  0  0  0  0  0  0  0  0  0  0
   27.6220   14.5280   24.7750 C   0  0  0  0  0  0  0  0  0  0  0  0
   27.7840   14.0390   23.4930 C   0  0  0  0  0  0  0  0  0  0  0  0
   28.8310   14.4600   22.7380 F   0  0  0  0  0  0  0  0  0  0  0  0
   23.1050   13.5340   20.2110 C   0  0  0  0  0  0  0  0  0  0  0  0
   24.4950   13.1700   20.5480 N   0  0  0  0  0  0  0  0  0  0  0  0
   24.8970   11.8460   20.8340 C   0  0  0  0  0  0  0  0  0  0  0  0
   23.9190   10.9110   20.6230 N   0  0  0  0  0  0  0  0  0  0  0  0
   26.0870   11.5240   21.2370 N   0  0  0  0  0  0  0  0  0  0  0  0
   27.0930   12.5380   21.5500 C   0  0  0  0  0  0  0  0  0  0  0  0
   28.4030   11.7470   21.5070 C   0  0  0  0  0  0  0  0  0  0  0  0
   27.1580   13.5650   20.4410 C   0  0  0  0  0  0  0  0  0  0  0  0
   25.6240   14.4490   20.3140 S   0  0  0  0  0  0  0  0  0  0  0  0
   25.5060   14.8780   18.9320 O   0  0  0  0  0  0  0  0  0  0  0  0
   25.4120   15.3020   21.4410 O   0  0  0  0  0  0  0  0  0  0  0  0
   24.1030    9.9590   20.7940 H   0  0  0  0  0  0  0  0  0  0  0  0
   23.0320   11.1910   20.3000 H   0  0  0  0  0  0  0  0  0  0  0  0
   24.5200   12.7700   25.7100 N   0  0  0  0  0  0  0  0  0  0  0  0
   23.1890   12.8430   25.3390 C   0  0  0  0  0  0  0  0  0  0  0  0
   22.7600   13.4580   24.3720 O   0  0  0  0  0  0  0  0  0  0  0  0
   24.7020   12.3350   26.5750 H   0  0  0  0  0  0  0  0  0  0  0  0
   22.2510   12.0720   26.1910 C   0  0  0  0  0  0  0  0  0  0  0  0
   21.0790   11.5720   25.6500 C   0  0  0  0  0  0  0  0  0  0  0  0
   20.2400   10.8610   26.4900 C   0  0  0  0  0  0  0  0  0  0  0  0
   20.5890   10.6730   27.8130 C   0  0  0  0  0  0  0  0  0  0  0  0
   19.8020    9.9980   28.6690 F   0  0  0  0  0  0  0  0  0  0  0  0
   21.7740   11.2140   28.2600 C   0  0  0  0  0  0  0  0  0  0  0  0
   22.6050   11.9130   27.4700 N   0  0  0  0  0  0  0  0  0  0  0  0
  8  9  1  0
  9 10  1  0
 10 11  1  0
 10 12  2  0
 12 13  1  0
 13 14  1  0
 13  1  1  0
  1  2  2  0
  2  3  1  0
  3 21  1  0
 21 22  1  0
 22 23  2  0
 22 25  1  0
 25 26  2  0
 26 27  1  0
 27 28  2  0
 28 29  1  0
 28 30  1  0
 30 31  2  0
  3  4  2  0
  4  5  1  0
  5  6  2  0
  6  7  1  0
 13 15  1  0
 15 16  1  0
 16 17  2  0
 16 18  2  0
 16  9  1  0
  6  1  1  0
 31 25  1  0
 11 19  1  0
 11 20  1  0
 21 24  1  0
M  END
> <meeko>
{"is_sidechain": false}

> <source_group>
BACE1-476

> <source_system>
BACE1_verubecestat

> <source_run>
alternate_476_seed2207_ex32

> <source_seed>
2207

> <vina_pose_rank>
3

> <vina_affinity_kcal_mol>
-8.5540000000000003

> <vina_rmsd_to_crystal_angstrom>
7.5450999999999997

> <minimizedAffinity>
-8.53976

> <CNNscore>
0.0288278833

> <CNNaffinity>
4.2513637543

> <CNN_VS>
0.1225578189

> <CNNaffinity_variance>
1.8392747641

$$$$
BACE1_verubecestat__alternate_476_seed2207_ex32__pose04


 31 33  0  0  0  0  0  0  0  0999 V2000
   26.1730   12.4600   21.1270 C   0  0  0  0  0  0  0  0  0  0  0  0
   27.0310   13.3320   21.7940 C   0  0  0  0  0  0  0  0  0  0  0  0
   28.3710   13.0640   21.9610 C   0  0  0  0  0  0  0  0  0  0  0  0
   28.9160   11.8800   21.4790 C   0  0  0  0  0  0  0  0  0  0  0  0
   28.0800   11.0040   20.8110 C   0  0  0  0  0  0  0  0  0  0  0  0
   26.7440   11.3020   20.6230 C   0  0  0  0  0  0  0  0  0  0  0  0
   25.9510   10.4380   19.9370 F   0  0  0  0  0  0  0  0  0  0  0  0
   23.3920   10.4220   24.3300 C   0  0  0  0  0  0  0  0  0  0  0  0
   23.7230   11.2800   23.1750 N   0  0  0  0  0  0  0  0  0  0  0  0
   23.4990   10.8900   21.8360 C   0  0  0  0  0  0  0  0  0  0  0  0
   22.8110    9.7130   21.7090 N   0  0  0  0  0  0  0  0  0  0  0  0
   23.8820   11.5830   20.8090 N   0  0  0  0  0  0  0  0  0  0  0  0
   24.6980   12.7870   20.9560 C   0  0  0  0  0  0  0  0  0  0  0  0
   24.5020   13.5000   19.6150 C   0  0  0  0  0  0  0  0  0  0  0  0
   24.1120   13.6840   22.0240 C   0  0  0  0  0  0  0  0  0  0  0  0
   24.1640   12.8870   23.6090 S   0  0  0  0  0  0  0  0  0  0  0  0
   23.0680   13.4380   24.3860 O   0  0  0  0  0  0  0  0  0  0  0  0
   25.5040   12.7560   24.0900 O   0  0  0  0  0  0  0  0  0  0  0  0
   22.6060    9.3570   20.8140 H   0  0  0  0  0  0  0  0  0  0  0  0
   22.5200    9.2220   22.5110 H   0  0  0  0  0  0  0  0  0  0  0  0
   29.1220   14.0220   22.6540 N   0  0  0  0  0  0  0  0  0  0  0  0
   29.3570   14.1080   24.0140 C   0  0  0  0  0  0  0  0  0  0  0  0
   28.8230   13.4100   24.8670 O   0  0  0  0  0  0  0  0  0  0  0  0
   29.5360   14.7240   22.1010 H   0  0  0  0  0  0  0  0  0  0  0  0
   30.3670   15.1150   24.4200 C   0  0  0  0  0  0  0  0  0  0  0  0
   29.9810   16.2240   25.1540 C   0  0  0  0  0  0  0  0  0  0  0  0
   30.9650   17.1330   25.5040 C   0  0  0  0  0  0  0  0  0  0  0  0
   32.2740   16.9100   25.1230 C   0  0  0  0  0  0  0  0  0  0  0  0
   33.2600   17.7690   25.4320 F   0  0  0  0  0  0  0  0  0  0  0  0
   32.5580   15.7810   24.3890 C   0  0  0  0  0  0  0  0  0  0  0  0
   31.6250   14.8840   24.0300 N   0  0  0  0  0  0  0  0  0  0  0  0
  8  9  1  0
  9 10  1  0
 10 11  1  0
 10 12  2  0
 12 13  1  0
 13 14  1  0
 13  1  1  0
  1  2  2  0
  2  3  1  0
  3 21  1  0
 21 22  1  0
 22 23  2  0
 22 25  1  0
 25 26  2  0
 26 27  1  0
 27 28  2  0
 28 29  1  0
 28 30  1  0
 30 31  2  0
  3  4  2  0
  4  5  1  0
  5  6  2  0
  6  7  1  0
 13 15  1  0
 15 16  1  0
 16 17  2  0
 16 18  2  0
 16  9  1  0
  6  1  1  0
 31 25  1  0
 11 19  1  0
 11 20  1  0
 21 24  1  0
M  END
> <meeko>
{"is_sidechain": false}

> <source_group>
BACE1-476

> <source_system>
BACE1_verubecestat

> <source_run>
alternate_476_seed2207_ex32

> <source_seed>
2207

> <vina_pose_rank>
4

> <vina_affinity_kcal_mol>
-8.3680000000000003

> <vina_rmsd_to_crystal_angstrom>
5.2865000000000002

> <minimizedAffinity>
-8.83547

> <CNNscore>
0.2284035385

> <CNNaffinity>
5.7795014381

> <CNN_VS>
1.3200585842

> <CNNaffinity_variance>
0.1681191325

$$$$
BACE1_verubecestat__alternate_476_seed2207_ex32__pose05


 31 33  0  0  0  0  0  0  0  0999 V2000
   20.9720   12.0900   27.4090 C   0  0  0  0  0  0  0  0  0  0  0  0
   21.6070   11.9930   26.1720 C   0  0  0  0  0  0  0  0  0  0  0  0
   22.7630   12.6820   25.8820 C   0  0  0  0  0  0  0  0  0  0  0  0
   23.3320   13.5290   26.8240 C   0  0  0  0  0  0  0  0  0  0  0  0
   22.7180   13.6350   28.0590 C   0  0  0  0  0  0  0  0  0  0  0  0
   21.5760   12.9130   28.3470 C   0  0  0  0  0  0  0  0  0  0  0  0
   21.0090   13.0120   29.5770 F   0  0  0  0  0  0  0  0  0  0  0  0
   17.0330   14.4640   26.4140 C   0  0  0  0  0  0  0  0  0  0  0  0
   17.8430   13.3110   26.8540 N   0  0  0  0  0  0  0  0  0  0  0  0
   18.0230   12.9710   28.2130 C   0  0  0  0  0  0  0  0  0  0  0  0
   17.2590   13.7090   29.0760 N   0  0  0  0  0  0  0  0  0  0  0  0
   18.8170   12.0300   28.6220 N   0  0  0  0  0  0  0  0  0  0  0  0
   19.6980   11.3130   27.7010 C   0  0  0  0  0  0  0  0  0  0  0  0
   20.0580   10.0480   28.4850 C   0  0  0  0  0  0  0  0  0  0  0  0
   18.9230   10.8720   26.4790 C   0  0  0  0  0  0  0  0  0  0  0  0
   18.3350   12.2780   25.5680 S   0  0  0  0  0  0  0  0  0  0  0  0
   17.1320   11.8490   24.8770 O   0  0  0  0  0  0  0  0  0  0  0  0
   19.4080   12.9900   24.9480 O   0  0  0  0  0  0  0  0  0  0  0  0
   17.3150   13.5450   30.0460 H   0  0  0  0  0  0  0  0  0  0  0  0
   16.6540   14.4030   28.7280 H   0  0  0  0  0  0  0  0  0  0  0  0
   23.2980   12.4980   24.6000 N   0  0  0  0  0  0  0  0  0  0  0  0
   23.1460   13.3020   23.4840 C   0  0  0  0  0  0  0  0  0  0  0  0
   22.3920   14.2640   23.4070 O   0  0  0  0  0  0  0  0  0  0  0  0
   23.8530   11.6940   24.4780 H   0  0  0  0  0  0  0  0  0  0  0  0
   24.0090   12.9540   22.3300 C   0  0  0  0  0  0  0  0  0  0  0  0
   23.4920   12.9830   21.0470 C   0  0  0  0  0  0  0  0  0  0  0  0
   24.3420   12.6470   20.0070 C   0  0  0  0  0  0  0  0  0  0  0  0
   25.6530   12.3030   20.2740 C   0  0  0  0  0  0  0  0  0  0  0  0
   26.5120   11.9610   19.2990 F   0  0  0  0  0  0  0  0  0  0  0  0
   26.0730   12.2980   21.5850 C   0  0  0  0  0  0  0  0  0  0  0  0
   25.2710   12.6140   22.6150 N   0  0  0  0  0  0  0  0  0  0  0  0
  8  9  1  0
  9 10  1  0
 10 11  1  0
 10 12  2  0
 12 13  1  0
 13 14  1  0
 13  1  1  0
  1  2  2  0
  2  3  1  0
  3 21  1  0
 21 22  1  0
 22 23  2  0
 22 25  1  0
 25 26  2  0
 26 27  1  0
 27 28  2  0
 28 29  1  0
 28 30  1  0
 30 31  2  0
  3  4  2  0
  4  5  1  0
  5  6  2  0
  6  7  1  0
 13 15  1  0
 15 16  1  0
 16 17  2  0
 16 18  2  0
 16  9  1  0
  6  1  1  0
 31 25  1  0
 11 19  1  0
 11 20  1  0
 21 24  1  0
M  END
> <meeko>
{"is_sidechain": false}

> <source_group>
BACE1-476

> <source_system>
BACE1_verubecestat

> <source_run>
alternate_476_seed2207_ex32

> <source_seed>
2207

> <vina_pose_rank>
5

> <vina_affinity_kcal_mol>
-8.2970000000000006

> <vina_rmsd_to_crystal_angstrom>
6.8373999999999997

> <minimizedAffinity>
-8.83574

> <CNNscore>
0.2517642379

> <CNNaffinity>
5.7476630211

> <CNN_VS>
1.4470560551

> <CNNaffinity_variance>
0.1780521125

$$$$
BACE1_verubecestat__alternate_476_seed2207_ex32__pose06


 31 33  0  0  0  0  0  0  0  0999 V2000
   26.8440   12.9560   22.9870 C   0  0  0  0  0  0  0  0  0  0  0  0
   25.5930   12.7150   23.5520 C   0  0  0  0  0  0  0  0  0  0  0  0
   25.2660   13.1300   24.8230 C   0  0  0  0  0  0  0  0  0  0  0  0
   26.2000   13.7960   25.6070 C   0  0  0  0  0  0  0  0  0  0  0  0
   27.4470   14.0460   25.0620 C   0  0  0  0  0  0  0  0  0  0  0  0
   27.7490   13.6530   23.7730 C   0  0  0  0  0  0  0  0  0  0  0  0
   28.9700   13.9370   23.2510 F   0  0  0  0  0  0  0  0  0  0  0  0
   23.3240   13.5460   19.9190 C   0  0  0  0  0  0  0  0  0  0  0  0
   24.6790   13.1690   20.3680 N   0  0  0  0  0  0  0  0  0  0  0  0
   25.0700   11.8310   20.5980 C   0  0  0  0  0  0  0  0  0  0  0  0
   24.1330   10.9060   20.2240 N   0  0  0  0  0  0  0  0  0  0  0  0
   26.2190   11.4900   21.0950 N   0  0  0  0  0  0  0  0  0  0  0  0
   27.1730   12.4870   21.5780 C   0  0  0  0  0  0  0  0  0  0  0  0
   28.4930   11.7120   21.6110 C   0  0  0  0  0  0  0  0  0  0  0  0
   27.3330   13.5910   20.5570 C   0  0  0  0  0  0  0  0  0  0  0  0
   25.8060   14.4700   20.3390 S   0  0  0  0  0  0  0  0  0  0  0  0
   25.8210   14.9970   18.9860 O   0  0  0  0  0  0  0  0  0  0  0  0
   25.4700   15.2390   21.4970 O   0  0  0  0  0  0  0  0  0  0  0  0
   24.3130    9.9460   20.3450 H   0  0  0  0  0  0  0  0  0  0  0  0
   23.2780   11.2010   19.8330 H   0  0  0  0  0  0  0  0  0  0  0  0
   23.9760   12.8220   25.2720 N   0  0  0  0  0  0  0  0  0  0  0  0
   22.7650   13.1300   24.6780 C   0  0  0  0  0  0  0  0  0  0  0  0
   22.6240   13.8530   23.7000 O   0  0  0  0  0  0  0  0  0  0  0  0
   23.9240   12.3220   26.1190 H   0  0  0  0  0  0  0  0  0  0  0  0
   21.5780   12.4820   25.2860 C   0  0  0  0  0  0  0  0  0  0  0  0
   21.7180   11.2880   25.9730 C   0  0  0  0  0  0  0  0  0  0  0  0
   20.5760   10.7270   26.5190 C   0  0  0  0  0  0  0  0  0  0  0  0
   19.3590   11.3620   26.3690 C   0  0  0  0  0  0  0  0  0  0  0  0
   18.2230   10.8510   26.8740 F   0  0  0  0  0  0  0  0  0  0  0  0
   19.3200   12.5440   25.6640 C   0  0  0  0  0  0  0  0  0  0  0  0
   20.4090   13.1090   25.1180 N   0  0  0  0  0  0  0  0  0  0  0  0
  8  9  1  0
  9 10  1  0
 10 11  1  0
 10 12  2  0
 12 13  1  0
 13 14  1  0
 13  1  1  0
  1  2  2  0
  2  3  1  0
  3 21  1  0
 21 22  1  0
 22 23  2  0
 22 25  1  0
 25 26  2  0
 26 27  1  0
 27 28  2  0
 28 29  1  0
 28 30  1  0
 30 31  2  0
  3  4  2  0
  4  5  1  0
  5  6  2  0
  6  7  1  0
 13 15  1  0
 15 16  1  0
 16 17  2  0
 16 18  2  0
 16  9  1  0
  6  1  1  0
 31 25  1  0
 11 19  1  0
 11 20  1  0
 21 24  1  0
M  END
> <meeko>
{"is_sidechain": false}

> <source_group>
BACE1-476

> <source_system>
BACE1_verubecestat

> <source_run>
alternate_476_seed2207_ex32

> <source_seed>
2207

> <vina_pose_rank>
6

> <vina_affinity_kcal_mol>
-8.1530000000000005

> <vina_rmsd_to_crystal_angstrom>
7.7742000000000004

> <minimizedAffinity>
-8.34884

> <CNNscore>
0.0208486449

> <CNNaffinity>
4.0681209564

> <CNN_VS>
0.0848148093

> <CNNaffinity_variance>
1.7137470245

$$$$
BACE1_verubecestat__alternate_476_seed2207_ex32__pose07


 31 33  0  0  0  0  0  0  0  0999 V2000
   26.4860   13.5870   22.6880 C   0  0  0  0  0  0  0  0  0  0  0  0
   25.6430   13.0120   23.6380 C   0  0  0  0  0  0  0  0  0  0  0  0
   24.2800   13.2030   23.6240 C   0  0  0  0  0  0  0  0  0  0  0  0
   23.6920   14.0080   22.6560 C   0  0  0  0  0  0  0  0  0  0  0  0
   24.5140   14.5830   21.7030 C   0  0  0  0  0  0  0  0  0  0  0  0
   25.8760   14.3570   21.7100 C   0  0  0  0  0  0  0  0  0  0  0  0
   26.6560   14.9100   20.7460 F   0  0  0  0  0  0  0  0  0  0  0  0
   28.8720   16.9750   24.9200 C   0  0  0  0  0  0  0  0  0  0  0  0
   28.6880   15.7020   24.1950 N   0  0  0  0  0  0  0  0  0  0  0  0
   28.9880   15.5460   22.8230 C   0  0  0  0  0  0  0  0  0  0  0  0
   29.6050   16.6330   22.2630 N   0  0  0  0  0  0  0  0  0  0  0  0
   28.7320   14.4700   22.1460 N   0  0  0  0  0  0  0  0  0  0  0  0
   27.9880   13.3540   22.7290 C   0  0  0  0  0  0  0  0  0  0  0  0
   28.3340   12.1880   21.7980 C   0  0  0  0  0  0  0  0  0  0  0  0
   28.5470   13.0140   24.0920 C   0  0  0  0  0  0  0  0  0  0  0  0
   28.3220   14.3670   25.2190 S   0  0  0  0  0  0  0  0  0  0  0  0
   29.3880   14.2720   26.1990 O   0  0  0  0  0  0  0  0  0  0  0  0
   26.9430   14.5560   25.5460 O   0  0  0  0  0  0  0  0  0  0  0  0
   29.8550   16.6200   21.3110 H   0  0  0  0  0  0  0  0  0  0  0  0
   29.8000   17.4260   22.8130 H   0  0  0  0  0  0  0  0  0  0  0  0
   23.5470   12.5710   24.6370 N   0  0  0  0  0  0  0  0  0  0  0  0
   23.2880   13.0260   25.9180 C   0  0  0  0  0  0  0  0  0  0  0  0
   23.7820   14.0250   26.4240 O   0  0  0  0  0  0  0  0  0  0  0  0
   23.1670   11.6920   24.4080 H   0  0  0  0  0  0  0  0  0  0  0  0
   22.3040   12.2260   26.6870 C   0  0  0  0  0  0  0  0  0  0  0  0
   21.1330   11.8040   26.0810 C   0  0  0  0  0  0  0  0  0  0  0  0
   20.2490   11.0620   26.8460 C   0  0  0  0  0  0  0  0  0  0  0  0
   20.5560   10.7680   28.1600 C   0  0  0  0  0  0  0  0  0  0  0  0
   19.7250   10.0600   28.9440 F   0  0  0  0  0  0  0  0  0  0  0  0
   21.7430   11.2370   28.6750 C   0  0  0  0  0  0  0  0  0  0  0  0
   22.6180   11.9640   27.9600 N   0  0  0  0  0  0  0  0  0  0  0  0
  8  9  1  0
  9 10  1  0
 10 11  1  0
 10 12  2  0
 12 13  1  0
 13 14  1  0
 13  1  1  0
  1  2  2  0
  2  3  1  0
  3 21  1  0
 21 22  1  0
 22 23  2  0
 22 25  1  0
 25 26  2  0
 26 27  1  0
 27 28  2  0
 28 29  1  0
 28 30  1  0
 30 31  2  0
  3  4  2  0
  4  5  1  0
  5  6  2  0
  6  7  1  0
 13 15  1  0
 15 16  1  0
 16 17  2  0
 16 18  2  0
 16  9  1  0
  6  1  1  0
 31 25  1  0
 11 19  1  0
 11 20  1  0
 21 24  1  0
M  END
> <meeko>
{"is_sidechain": false}

> <source_group>
BACE1-476

> <source_system>
BACE1_verubecestat

> <source_run>
alternate_476_seed2207_ex32

> <source_seed>
2207

> <vina_pose_rank>
7

> <vina_affinity_kcal_mol>
-8.1319999999999997

> <vina_rmsd_to_crystal_angstrom>
8.1972000000000005

> <minimizedAffinity>
-8.60624

> <CNNscore>
0.0591619723

> <CNNaffinity>
4.5790138245

> <CNN_VS>
0.2709034979

> <CNNaffinity_variance>
1.1994502544

$$$$
BACE1_verubecestat__alternate_476_seed2207_ex32__pose08


 31 33  0  0  0  0  0  0  0  0999 V2000
   25.6150   11.5750   21.3420 C   0  0  0  0  0  0  0  0  0  0  0  0
   25.1100   11.7100   22.6340 C   0  0  0  0  0  0  0  0  0  0  0  0
   23.8560   11.2650   22.9850 C   0  0  0  0  0  0  0  0  0  0  0  0
   23.0290   10.6750   22.0380 C   0  0  0  0  0  0  0  0  0  0  0  0
   23.5140   10.5290   20.7510 C   0  0  0  0  0  0  0  0  0  0  0  0
   24.7870   10.9520   20.4210 C   0  0  0  0  0  0  0  0  0  0  0  0
   25.2510   10.7710   19.1570 F   0  0  0  0  0  0  0  0  0  0  0  0
   25.9060   16.2550   20.9360 C   0  0  0  0  0  0  0  0  0  0  0  0
   26.4020   14.8650   20.9500 N   0  0  0  0  0  0  0  0  0  0  0  0
   26.6740   14.1320   19.7730 C   0  0  0  0  0  0  0  0  0  0  0  0
   26.5830   14.8720   18.6240 N   0  0  0  0  0  0  0  0  0  0  0  0
   27.0050   12.8780   19.7640 N   0  0  0  0  0  0  0  0  0  0  0  0
   27.0060   12.0750   20.9860 C   0  0  0  0  0  0  0  0  0  0  0  0
   27.8800   10.8760   20.6070 C   0  0  0  0  0  0  0  0  0  0  0  0
   27.7240   12.8150   22.0930 C   0  0  0  0  0  0  0  0  0  0  0  0
   26.8590   14.3070   22.5130 S   0  0  0  0  0  0  0  0  0  0  0  0
   27.8540   15.2320   23.0250 O   0  0  0  0  0  0  0  0  0  0  0  0
   25.6130   14.0310   23.1560 O   0  0  0  0  0  0  0  0  0  0  0  0
   26.7550   14.4500   17.7520 H   0  0  0  0  0  0  0  0  0  0  0  0
   26.3460   15.8270   18.6710 H   0  0  0  0  0  0  0  0  0  0  0  0
   23.4690   11.4640   24.3170 N   0  0  0  0  0  0  0  0  0  0  0  0
   22.6580   12.4590   24.8340 C   0  0  0  0  0  0  0  0  0  0  0  0
   22.2420   13.4250   24.2080 O   0  0  0  0  0  0  0  0  0  0  0  0
   23.8190   10.8130   24.9680 H   0  0  0  0  0  0  0  0  0  0  0  0
   22.2610   12.2790   26.2520 C   0  0  0  0  0  0  0  0  0  0  0  0
   21.7100   11.0800   26.6680 C   0  0  0  0  0  0  0  0  0  0  0  0
   21.3560   10.9670   28.0010 C   0  0  0  0  0  0  0  0  0  0  0  0
   21.5620   12.0300   28.8590 C   0  0  0  0  0  0  0  0  0  0  0  0
   21.2260   11.9700   30.1590 F   0  0  0  0  0  0  0  0  0  0  0  0
   22.1120   13.1840   28.3500 C   0  0  0  0  0  0  0  0  0  0  0  0
   22.4600   13.3250   27.0600 N   0  0  0  0  0  0  0  0  0  0  0  0
  8  9  1  0
  9 10  1  0
 10 11  1  0
 10 12  2  0
 12 13  1  0
 13 14  1  0
 13  1  1  0
  1  2  2  0
  2  3  1  0
  3 21  1  0
 21 22  1  0
 22 23  2  0
 22 25  1  0
 25 26  2  0
 26 27  1  0
 27 28  2  0
 28 29  1  0
 28 30  1  0
 30 31  2  0
  3  4  2  0
  4  5  1  0
  5  6  2  0
  6  7  1  0
 13 15  1  0
 15 16  1  0
 16 17  2  0
 16 18  2  0
 16  9  1  0
  6  1  1  0
 31 25  1  0
 11 19  1  0
 11 20  1  0
 21 24  1  0
M  END
> <meeko>
{"is_sidechain": false}

> <source_group>
BACE1-476

> <source_system>
BACE1_verubecestat

> <source_run>
alternate_476_seed2207_ex32

> <source_seed>
2207

> <vina_pose_rank>
8

> <vina_affinity_kcal_mol>
-7.992

> <vina_rmsd_to_crystal_angstrom>
7.2918000000000003

> <minimizedAffinity>
-9.02284

> <CNNscore>
0.4665298760

> <CNNaffinity>
6.5052695274

> <CNN_VS>
3.0349025726

> <CNNaffinity_variance>
0.0493461676

$$$$
BACE1_verubecestat__alternate_476_seed2207_ex32__pose09


 31 33  0  0  0  0  0  0  0  0999 V2000
   21.0570   11.9640   27.6400 C   0  0  0  0  0  0  0  0  0  0  0  0
   21.7240   12.2500   26.4500 C   0  0  0  0  0  0  0  0  0  0  0  0
   22.7930   13.1160   26.3950 C   0  0  0  0  0  0  0  0  0  0  0  0
   23.2350   13.7620   27.5420 C   0  0  0  0  0  0  0  0  0  0  0  0
   22.5860   13.4880   28.7340 C   0  0  0  0  0  0  0  0  0  0  0  0
   21.5360   12.5920   28.7800 C   0  0  0  0  0  0  0  0  0  0  0  0
   20.9360   12.3180   29.9660 F   0  0  0  0  0  0  0  0  0  0  0  0
   16.9240   13.9790   26.6360 C   0  0  0  0  0  0  0  0  0  0  0  0
   17.8460   12.8750   26.9670 N   0  0  0  0  0  0  0  0  0  0  0  0
   17.9590   12.3280   28.2650 C   0  0  0  0  0  0  0  0  0  0  0  0
   17.0330   12.8080   29.1520 N   0  0  0  0  0  0  0  0  0  0  0  0
   18.8380   11.4340   28.5970 N   0  0  0  0  0  0  0  0  0  0  0  0
   19.8810   11.0000   27.6690 C   0  0  0  0  0  0  0  0  0  0  0  0
   20.3460    9.6720   28.2730 C   0  0  0  0  0  0  0  0  0  0  0  0
   19.2760   10.6860   26.3190 C   0  0  0  0  0  0  0  0  0  0  0  0
   18.5780   12.1460   25.5900 S   0  0  0  0  0  0  0  0  0  0  0  0
   17.5060   11.7010   24.7180 O   0  0  0  0  0  0  0  0  0  0  0  0
   19.5900   13.0800   25.2070 O   0  0  0  0  0  0  0  0  0  0  0  0
   17.0310   12.4870   30.0830 H   0  0  0  0  0  0  0  0  0  0  0  0
   16.3690   13.4730   28.8590 H   0  0  0  0  0  0  0  0  0  0  0  0
   23.3720   13.3190   25.1350 N   0  0  0  0  0  0  0  0  0  0  0  0
   24.2340   12.4850   24.4450 C   0  0  0  0  0  0  0  0  0  0  0  0
   24.7400   11.4660   24.8950 O   0  0  0  0  0  0  0  0  0  0  0  0
   23.1360   14.1610   24.6840 H   0  0  0  0  0  0  0  0  0  0  0  0
   24.5070   12.8800   23.0410 C   0  0  0  0  0  0  0  0  0  0  0  0
   23.4710   12.9400   22.1260 C   0  0  0  0  0  0  0  0  0  0  0  0
   23.7830   13.3120   20.8300 C   0  0  0  0  0  0  0  0  0  0  0  0
   25.0900   13.6090   20.4960 C   0  0  0  0  0  0  0  0  0  0  0  0
   25.4430   13.9660   19.2490 F   0  0  0  0  0  0  0  0  0  0  0  0
   26.0530   13.5150   21.4750 C   0  0  0  0  0  0  0  0  0  0  0  0
   25.7810   13.1510   22.7390 N   0  0  0  0  0  0  0  0  0  0  0  0
  8  9  1  0
  9 10  1  0
 10 11  1  0
 10 12  2  0
 12 13  1  0
 13 14  1  0
 13  1  1  0
  1  2  2  0
  2  3  1  0
  3 21  1  0
 21 22  1  0
 22 23  2  0
 22 25  1  0
 25 26  2  0
 26 27  1  0
 27 28  2  0
 28 29  1  0
 28 30  1  0
 30 31  2  0
  3  4  2  0
  4  5  1  0
  5  6  2  0
  6  7  1  0
 13 15  1  0
 15 16  1  0
 16 17  2  0
 16 18  2  0
 16  9  1  0
  6  1  1  0
 31 25  1  0
 11 19  1  0
 11 20  1  0
 21 24  1  0
M  END
> <meeko>
{"is_sidechain": false}

> <source_group>
BACE1-476

> <source_system>
BACE1_verubecestat

> <source_run>
alternate_476_seed2207_ex32

> <source_seed>
2207

> <vina_pose_rank>
9

> <vina_affinity_kcal_mol>
-7.8289999999999997

> <vina_rmsd_to_crystal_angstrom>
7.0391000000000004

> <minimizedAffinity>
-8.53342

> <CNNscore>
0.0433735996

> <CNNaffinity>
5.0918316841

> <CNN_VS>
0.2208510637

> <CNNaffinity_variance>
0.3125327229

$$$$
BACE1_verubecestat__alternate_476_seed2207_ex32__pose10


 31 33  0  0  0  0  0  0  0  0999 V2000
   19.6900   11.4620   27.2690 C   0  0  0  0  0  0  0  0  0  0  0  0
   18.8090   10.8260   26.3950 C   0  0  0  0  0  0  0  0  0  0  0  0
   17.5760   11.3520   26.0820 C   0  0  0  0  0  0  0  0  0  0  0  0
   17.1530   12.5440   26.6550 C   0  0  0  0  0  0  0  0  0  0  0  0
   18.0150   13.1900   27.5220 C   0  0  0  0  0  0  0  0  0  0  0  0
   19.2630   12.6680   27.8030 C   0  0  0  0  0  0  0  0  0  0  0  0
   20.1020   13.3370   28.6340 F   0  0  0  0  0  0  0  0  0  0  0  0
   22.6760   11.4420   23.6320 C   0  0  0  0  0  0  0  0  0  0  0  0
   22.2370   11.2160   25.0230 N   0  0  0  0  0  0  0  0  0  0  0  0
   21.8700    9.9450   25.5190 C   0  0  0  0  0  0  0  0  0  0  0  0
   22.1030    8.9190   24.6420 N   0  0  0  0  0  0  0  0  0  0  0  0
   21.3790    9.7460   26.7030 N   0  0  0  0  0  0  0  0  0  0  0  0
   21.0470   10.8570   27.5930 C   0  0  0  0  0  0  0  0  0  0  0  0
   20.9740   10.1860   28.9670 C   0  0  0  0  0  0  0  0  0  0  0  0
   22.1920   11.8440   27.6420 C   0  0  0  0  0  0  0  0  0  0  0  0
   22.4530   12.5820   26.0490 S   0  0  0  0  0  0  0  0  0  0  0  0
   23.8570   12.9480   25.9870 O   0  0  0  0  0  0  0  0  0  0  0  0
   21.3790   13.4540   25.6890 O   0  0  0  0  0  0  0  0  0  0  0  0
   21.8800    7.9950   24.8970 H   0  0  0  0  0  0  0  0  0  0  0  0
   22.4940    9.1060   23.7580 H   0  0  0  0  0  0  0  0  0  0  0  0
   16.7860   10.6120   25.1920 N   0  0  0  0  0  0  0  0  0  0  0  0
   15.4270   10.7220   24.9570 C   0  0  0  0  0  0  0  0  0  0  0  0
   14.6550   11.4190   25.6020 O   0  0  0  0  0  0  0  0  0  0  0  0
   17.2590    9.9260   24.6670 H   0  0  0  0  0  0  0  0  0  0  0  0
   14.9190    9.9430   23.8020 C   0  0  0  0  0  0  0  0  0  0  0  0
   15.6590    8.8840   23.3030 C   0  0  0  0  0  0  0  0  0  0  0  0
   15.1380    8.1930   22.2230 C   0  0  0  0  0  0  0  0  0  0  0  0
   13.9210    8.5690   21.6880 C   0  0  0  0  0  0  0  0  0  0  0  0
   13.3810    7.9340   20.6340 F   0  0  0  0  0  0  0  0  0  0  0  0
   13.2630    9.6390   22.2490 C   0  0  0  0  0  0  0  0  0  0  0  0
   13.7450   10.3320   23.2940 N   0  0  0  0  0  0  0  0  0  0  0  0
  8  9  1  0
  9 10  1  0
 10 11  1  0
 10 12  2  0
 12 13  1  0
 13 14  1  0
 13  1  1  0
  1  2  2  0
  2  3  1  0
  3 21  1  0
 21 22  1  0
 22 23  2  0
 22 25  1  0
 25 26  2  0
 26 27  1  0
 27 28  2  0
 28 29  1  0
 28 30  1  0
 30 31  2  0
  3  4  2  0
  4  5  1  0
  5  6  2  0
  6  7  1  0
 13 15  1  0
 15 16  1  0
 16 17  2  0
 16 18  2  0
 16  9  1  0
  6  1  1  0
 31 25  1  0
 11 19  1  0
 11 20  1  0
 21 24  1  0
M  END
> <meeko>
{"is_sidechain": false}

> <source_group>
BACE1-476

> <source_system>
BACE1_verubecestat

> <source_run>
alternate_476_seed2207_ex32

> <source_seed>
2207

> <vina_pose_rank>
10

> <vina_affinity_kcal_mol>
-7.7080000000000002

> <vina_rmsd_to_crystal_angstrom>
10.4808

> <minimizedAffinity>
-8.05108

> <CNNscore>
0.6590927839

> <CNNaffinity>
6.5214290619

> <CNN_VS>
4.2982268333

> <CNNaffinity_variance>
0.1375542730

$$$$
BACE1_verubecestat__alternate_476_seed2207_ex32__pose11


 31 33  0  0  0  0  0  0  0  0999 V2000
   26.9760   13.5780   22.2630 C   0  0  0  0  0  0  0  0  0  0  0  0
   25.8890   13.0350   22.9460 C   0  0  0  0  0  0  0  0  0  0  0  0
   24.5890   13.3760   22.6510 C   0  0  0  0  0  0  0  0  0  0  0  0
   24.3140   14.3090   21.6590 C   0  0  0  0  0  0  0  0  0  0  0  0
   25.3810   14.8560   20.9680 C   0  0  0  0  0  0  0  0  0  0  0  0
   26.6790   14.4800   21.2530 C   0  0  0  0  0  0  0  0  0  0  0  0
   27.7060   15.0100   20.5400 F   0  0  0  0  0  0  0  0  0  0  0  0
   29.3180   16.8370   24.7220 C   0  0  0  0  0  0  0  0  0  0  0  0
   29.1110   15.5400   24.0490 N   0  0  0  0  0  0  0  0  0  0  0  0
   29.6400   15.2400   22.7740 C   0  0  0  0  0  0  0  0  0  0  0  0
   30.4860   16.1990   22.2840 N   0  0  0  0  0  0  0  0  0  0  0  0
   29.3790   14.1490   22.1220 N   0  0  0  0  0  0  0  0  0  0  0  0
   28.4010   13.1780   22.6110 C   0  0  0  0  0  0  0  0  0  0  0  0
   28.7620   11.9090   21.8340 C   0  0  0  0  0  0  0  0  0  0  0  0
   28.6460   12.8860   24.0740 C   0  0  0  0  0  0  0  0  0  0  0  0
   28.3900   14.3430   25.0550 S   0  0  0  0  0  0  0  0  0  0  0  0
   29.2330   14.2050   26.2300 O   0  0  0  0  0  0  0  0  0  0  0  0
   27.0110   14.7160   25.0960 O   0  0  0  0  0  0  0  0  0  0  0  0
   30.9060   16.0810   21.4010 H   0  0  0  0  0  0  0  0  0  0  0  0
   30.6750   17.0060   22.8150 H   0  0  0  0  0  0  0  0  0  0  0  0
   23.5890   12.7590   23.4140 N   0  0  0  0  0  0  0  0  0  0  0  0
   23.2060   13.0410   24.7140 C   0  0  0  0  0  0  0  0  0  0  0  0
   23.7850   13.8120   25.4670 O   0  0  0  0  0  0  0  0  0  0  0  0
   23.0950   12.0330   22.9690 H   0  0  0  0  0  0  0  0  0  0  0  0
   21.9730   12.3560   25.1730 C   0  0  0  0  0  0  0  0  0  0  0  0
   22.0350   11.0480   25.6210 C   0  0  0  0  0  0  0  0  0  0  0  0
   20.8540   10.4580   26.0360 C   0  0  0  0  0  0  0  0  0  0  0  0
   19.6750   11.1770   25.9950 C   0  0  0  0  0  0  0  0  0  0  0  0
   18.5020   10.6430   26.3790 F   0  0  0  0  0  0  0  0  0  0  0  0
   19.7140   12.4710   25.5280 C   0  0  0  0  0  0  0  0  0  0  0  0
   20.8430   13.0680   25.1140 N   0  0  0  0  0  0  0  0  0  0  0  0
  8  9  1  0
  9 10  1  0
 10 11  1  0
 10 12  2  0
 12 13  1  0
 13 14  1  0
 13  1  1  0
  1  2  2  0
  2  3  1  0
  3 21  1  0
 21 22  1  0
 22 23  2  0
 22 25  1  0
 25 26  2  0
 26 27  1  0
 27 28  2  0
 28 29  1  0
 28 30  1  0
 30 31  2  0
  3  4  2  0
  4  5  1  0
  5  6  2  0
  6  7  1  0
 13 15  1  0
 15 16  1  0
 16 17  2  0
 16 18  2  0
 16  9  1  0
  6  1  1  0
 31 25  1  0
 11 19  1  0
 11 20  1  0
 21 24  1  0
M  END
> <meeko>
{"is_sidechain": false}

> <source_group>
BACE1-476

> <source_system>
BACE1_verubecestat

> <source_run>
alternate_476_seed2207_ex32

> <source_seed>
2207

> <vina_pose_rank>
11

> <vina_affinity_kcal_mol>
-7.6619999999999999

> <vina_rmsd_to_crystal_angstrom>
8.1980000000000004

> <minimizedAffinity>
-8.17991

> <CNNscore>
0.0264520962

> <CNNaffinity>
4.6939067841

> <CNN_VS>
0.1241636723

> <CNNaffinity_variance>
0.5405069590

$$$$
BACE1_verubecestat__alternate_476_seed2207_ex32__pose12


 31 33  0  0  0  0  0  0  0  0999 V2000
   25.9330   14.0110   22.8630 C   0  0  0  0  0  0  0  0  0  0  0  0
   24.8850   13.9480   23.7800 C   0  0  0  0  0  0  0  0  0  0  0  0
   25.0980   13.8640   25.1370 C   0  0  0  0  0  0  0  0  0  0  0  0
   26.3910   13.8160   25.6440 C   0  0  0  0  0  0  0  0  0  0  0  0
   27.4430   13.8810   24.7490 C   0  0  0  0  0  0  0  0  0  0  0  0
   27.2140   13.9980   23.3920 C   0  0  0  0  0  0  0  0  0  0  0  0
   28.2640   14.0890   22.5360 F   0  0  0  0  0  0  0  0  0  0  0  0
   25.1820    9.8480   20.7990 C   0  0  0  0  0  0  0  0  0  0  0  0
   25.2990   11.3180   20.8780 N   0  0  0  0  0  0  0  0  0  0  0  0
   26.4370   12.0240   20.4300 C   0  0  0  0  0  0  0  0  0  0  0  0
   27.3550   11.2440   19.7790 N   0  0  0  0  0  0  0  0  0  0  0  0
   26.6040   13.3010   20.5900 N   0  0  0  0  0  0  0  0  0  0  0  0
   25.6640   14.1060   21.3690 C   0  0  0  0  0  0  0  0  0  0  0  0
   25.9660   15.5330   20.9020 C   0  0  0  0  0  0  0  0  0  0  0  0
   24.2440   13.7950   20.9520 C   0  0  0  0  0  0  0  0  0  0  0  0
   23.8360   12.1080   21.3250 S   0  0  0  0  0  0  0  0  0  0  0  0
   22.8210   11.7060   20.3670 O   0  0  0  0  0  0  0  0  0  0  0  0
   23.7440   11.8860   22.7340 O   0  0  0  0  0  0  0  0  0  0  0  0
   28.1830   11.6460   19.4290 H   0  0  0  0  0  0  0  0  0  0  0  0
   27.1870   10.2810   19.6600 H   0  0  0  0  0  0  0  0  0  0  0  0
   23.9580   13.8040   25.9490 N   0  0  0  0  0  0  0  0  0  0  0  0
   23.2280   12.6890   26.3220 C   0  0  0  0  0  0  0  0  0  0  0  0
   23.3960   11.5590   25.8820 O   0  0  0  0  0  0  0  0  0  0  0  0
   23.6360   14.6660   26.3000 H   0  0  0  0  0  0  0  0  0  0  0  0
   22.1980   12.9250   27.3620 C   0  0  0  0  0  0  0  0  0  0  0  0
   22.5210   13.6340   28.5060 C   0  0  0  0  0  0  0  0  0  0  0  0
   21.5210   13.8230   29.4440 C   0  0  0  0  0  0  0  0  0  0  0  0
   20.2580   13.3140   29.2160 C   0  0  0  0  0  0  0  0  0  0  0  0
   19.2590   13.4640   30.1020 F   0  0  0  0  0  0  0  0  0  0  0  0
   20.0350   12.6170   28.0500 C   0  0  0  0  0  0  0  0  0  0  0  0
   20.9860   12.4130   27.1230 N   0  0  0  0  0  0  0  0  0  0  0  0
  8  9  1  0
  9 10  1  0
 10 11  1  0
 10 12  2  0
 12 13  1  0
 13 14  1  0
 13  1  1  0
  1  2  2  0
  2  3  1  0
  3 21  1  0
 21 22  1  0
 22 23  2  0
 22 25  1  0
 25 26  2  0
 26 27  1  0
 27 28  2  0
 28 29  1  0
 28 30  1  0
 30 31  2  0
  3  4  2  0
  4  5  1  0
  5  6  2  0
  6  7  1  0
 13 15  1  0
 15 16  1  0
 16 17  2  0
 16 18  2  0
 16  9  1  0
  6  1  1  0
 31 25  1  0
 11 19  1  0
 11 20  1  0
 21 24  1  0
M  END
> <meeko>
{"is_sidechain": false}

> <source_group>
BACE1-476

> <source_system>
BACE1_verubecestat

> <source_run>
alternate_476_seed2207_ex32

> <source_seed>
2207

> <vina_pose_rank>
12

> <vina_affinity_kcal_mol>
-7.5309999999999997

> <vina_rmsd_to_crystal_angstrom>
7.9459999999999997

> <minimizedAffinity>
-8.26127

> <CNNscore>
0.0208067354

> <CNNaffinity>
3.9451038837

> <CNN_VS>
0.0820847303

> <CNNaffinity_variance>
1.8305220604

$$$$
BACE1_verubecestat__alternate_476_seed2207_ex32__pose13


 31 33  0  0  0  0  0  0  0  0999 V2000
   23.9800   13.6280   21.8580 C   0  0  0  0  0  0  0  0  0  0  0  0
   23.2150   13.1480   22.9190 C   0  0  0  0  0  0  0  0  0  0  0  0
   23.3670   13.6130   24.2060 C   0  0  0  0  0  0  0  0  0  0  0  0
   24.3230   14.5780   24.4970 C   0  0  0  0  0  0  0  0  0  0  0  0
   25.0890   15.0690   23.4550 C   0  0  0  0  0  0  0  0  0  0  0  0
   24.9030   14.6170   22.1630 C   0  0  0  0  0  0  0  0  0  0  0  0
   25.6480   15.1360   21.1540 F   0  0  0  0  0  0  0  0  0  0  0  0
   27.1870   10.4320   20.5730 C   0  0  0  0  0  0  0  0  0  0  0  0
   25.9900   11.2830   20.4240 N   0  0  0  0  0  0  0  0  0  0  0  0
   25.9830   12.4780   19.6710 C   0  0  0  0  0  0  0  0  0  0  0  0
   27.1370   12.6970   18.9670 N   0  0  0  0  0  0  0  0  0  0  0  0
   24.9750   13.2920   19.6180 N   0  0  0  0  0  0  0  0  0  0  0  0
   23.7860   13.0970   20.4460 C   0  0  0  0  0  0  0  0  0  0  0  0
   22.7310   13.9510   19.7370 C   0  0  0  0  0  0  0  0  0  0  0  0
   23.3240   11.6600   20.3600 C   0  0  0  0  0  0  0  0  0  0  0  0
   24.5490   10.5660   21.0340 S   0  0  0  0  0  0  0  0  0  0  0  0
   24.3830    9.2920   20.3570 O   0  0  0  0  0  0  0  0  0  0  0  0
   24.6660   10.7140   22.4510 O   0  0  0  0  0  0  0  0  0  0  0  0
   27.2280   13.5050   18.4110 H   0  0  0  0  0  0  0  0  0  0  0  0
   27.8760   12.0480   19.0170 H   0  0  0  0  0  0  0  0  0  0  0  0
   22.5370   13.0440   25.1810 N   0  0  0  0  0  0  0  0  0  0  0  0
   22.7160   11.8600   25.8750 C   0  0  0  0  0  0  0  0  0  0  0  0
   23.5910   11.0360   25.6460 O   0  0  0  0  0  0  0  0  0  0  0  0
   21.7230   13.5520   25.4010 H   0  0  0  0  0  0  0  0  0  0  0  0
   21.7700   11.6340   26.9950 C   0  0  0  0  0  0  0  0  0  0  0  0
   21.8600   12.4050   28.1410 C   0  0  0  0  0  0  0  0  0  0  0  0
   20.9540   12.1490   29.1550 C   0  0  0  0  0  0  0  0  0  0  0  0
   20.0050   11.1580   28.9970 C   0  0  0  0  0  0  0  0  0  0  0  0
   19.1120   10.8680   29.9580 F   0  0  0  0  0  0  0  0  0  0  0  0
   19.9990   10.4410   27.8220 C   0  0  0  0  0  0  0  0  0  0  0  0
   20.8690   10.6620   26.8230 N   0  0  0  0  0  0  0  0  0  0  0  0
  8  9  1  0
  9 10  1  0
 10 11  1  0
 10 12  2  0
 12 13  1  0
 13 14  1  0
 13  1  1  0
  1  2  2  0
  2  3  1  0
  3 21  1  0
 21 22  1  0
 22 23  2  0
 22 25  1  0
 25 26  2  0
 26 27  1  0
 27 28  2  0
 28 29  1  0
 28 30  1  0
 30 31  2  0
  3  4  2  0
  4  5  1  0
  5  6  2  0
  6  7  1  0
 13 15  1  0
 15 16  1  0
 16 17  2  0
 16 18  2  0
 16  9  1  0
  6  1  1  0
 31 25  1  0
 11 19  1  0
 11 20  1  0
 21 24  1  0
M  END
> <meeko>
{"is_sidechain": false}

> <source_group>
BACE1-476

> <source_system>
BACE1_verubecestat

> <source_run>
alternate_476_seed2207_ex32

> <source_seed>
2207

> <vina_pose_rank>
13

> <vina_affinity_kcal_mol>
-7.4480000000000004

> <vina_rmsd_to_crystal_angstrom>
7.5262000000000002

> <minimizedAffinity>
-7.91616

> <CNNscore>
0.0833862647

> <CNNaffinity>
4.9678802490

> <CNN_VS>
0.4142529666

> <CNNaffinity_variance>
1.1912277937

$$$$
BACE1_verubecestat__alternate_476_seed2207_ex32__pose14


 31 33  0  0  0  0  0  0  0  0999 V2000
   27.7550   13.7590   23.3800 C   0  0  0  0  0  0  0  0  0  0  0  0
   26.5410   13.1460   23.6880 C   0  0  0  0  0  0  0  0  0  0  0  0
   25.9020   13.3430   24.8910 C   0  0  0  0  0  0  0  0  0  0  0  0
   26.4690   14.1570   25.8640 C   0  0  0  0  0  0  0  0  0  0  0  0
   27.6710   14.7760   25.5740 C   0  0  0  0  0  0  0  0  0  0  0  0
   28.2850   14.5960   24.3500 C   0  0  0  0  0  0  0  0  0  0  0  0
   29.4500   15.2380   24.0790 F   0  0  0  0  0  0  0  0  0  0  0  0
   24.7710   13.5490   19.7460 C   0  0  0  0  0  0  0  0  0  0  0  0
   26.0840   13.5480   20.4200 N   0  0  0  0  0  0  0  0  0  0  0  0
   26.8170   12.3680   20.6770 C   0  0  0  0  0  0  0  0  0  0  0  0
   26.2760   11.2440   20.1120 N   0  0  0  0  0  0  0  0  0  0  0  0
   27.9180   12.3370   21.3630 N   0  0  0  0  0  0  0  0  0  0  0  0
   28.4350   13.5250   22.0400 C   0  0  0  0  0  0  0  0  0  0  0  0
   29.9030   13.1680   22.2870 C   0  0  0  0  0  0  0  0  0  0  0  0
   28.4190   14.7080   21.0980 C   0  0  0  0  0  0  0  0  0  0  0  0
   26.7550   15.1190   20.6350 S   0  0  0  0  0  0  0  0  0  0  0  0
   26.8310   15.7370   19.3230 O   0  0  0  0  0  0  0  0  0  0  0  0
   26.0200   15.6580   21.7360 O   0  0  0  0  0  0  0  0  0  0  0  0
   26.7150   10.3720   20.2350 H   0  0  0  0  0  0  0  0  0  0  0  0
   25.4480   11.3090   19.5830 H   0  0  0  0  0  0  0  0  0  0  0  0
   24.6900   12.6650   25.0760 N   0  0  0  0  0  0  0  0  0  0  0  0
   23.5990   13.0510   25.8340 C   0  0  0  0  0  0  0  0  0  0  0  0
   23.5710   14.0160   26.5870 O   0  0  0  0  0  0  0  0  0  0  0  0
   24.6040   11.8040   24.6060 H   0  0  0  0  0  0  0  0  0  0  0  0
   22.3820   12.2220   25.6610 C   0  0  0  0  0  0  0  0  0  0  0  0
   21.1540   12.6990   26.0870 C   0  0  0  0  0  0  0  0  0  0  0  0
   20.0520   11.8830   25.9020 C   0  0  0  0  0  0  0  0  0  0  0  0
   20.2050   10.6450   25.3080 C   0  0  0  0  0  0  0  0  0  0  0  0
   19.1660    9.8140   25.1160 F   0  0  0  0  0  0  0  0  0  0  0  0
   21.4680   10.2560   24.9220 C   0  0  0  0  0  0  0  0  0  0  0  0
   22.5570   11.0240   25.0940 N   0  0  0  0  0  0  0  0  0  0  0  0
  8  9  1  0
  9 10  1  0
 10 11  1  0
 10 12  2  0
 12 13  1  0
 13 14  1  0
 13  1  1  0
  1  2  2  0
  2  3  1  0
  3 21  1  0
 21 22  1  0
 22 23  2  0
 22 25  1  0
 25 26  2  0
 26 27  1  0
 27 28  2  0
 28 29  1  0
 28 30  1  0
 30 31  2  0
  3  4  2  0
  4  5  1  0
  5  6  2  0
  6  7  1  0
 13 15  1  0
 15 16  1  0
 16 17  2  0
 16 18  2  0
 16  9  1  0
  6  1  1  0
 31 25  1  0
 11 19  1  0
 11 20  1  0
 21 24  1  0
M  END
> <meeko>
{"is_sidechain": false}

> <source_group>
BACE1-476

> <source_system>
BACE1_verubecestat

> <source_run>
alternate_476_seed2207_ex32

> <source_seed>
2207

> <vina_pose_rank>
14

> <vina_affinity_kcal_mol>
-7.335

> <vina_rmsd_to_crystal_angstrom>
8.0632000000000001

> <minimizedAffinity>
-7.81950

> <CNNscore>
0.0103566973

> <CNNaffinity>
3.4928176403

> <CNN_VS>
0.0361740552

> <CNNaffinity_variance>
2.4820926189

$$$$
BACE1_verubecestat__alternate_476_seed2207_ex32__pose15


 31 33  0  0  0  0  0  0  0  0999 V2000
   26.0940   14.6110   21.5120 C   0  0  0  0  0  0  0  0  0  0  0  0
   25.3560   14.3870   22.6740 C   0  0  0  0  0  0  0  0  0  0  0  0
   24.2080   13.6280   22.6820 C   0  0  0  0  0  0  0  0  0  0  0  0
   23.7260   13.0680   21.5050 C   0  0  0  0  0  0  0  0  0  0  0  0
   24.4480   13.2780   20.3430 C   0  0  0  0  0  0  0  0  0  0  0  0
   25.6150   14.0150   20.3560 C   0  0  0  0  0  0  0  0  0  0  0  0
   26.3200   14.1810   19.2070 F   0  0  0  0  0  0  0  0  0  0  0  0
   28.8720   13.7530   25.2130 C   0  0  0  0  0  0  0  0  0  0  0  0
   28.4700   14.3850   23.9410 N   0  0  0  0  0  0  0  0  0  0  0  0
   27.9420   15.6930   23.8640 C   0  0  0  0  0  0  0  0  0  0  0  0
   27.9800   16.3770   25.0490 N   0  0  0  0  0  0  0  0  0  0  0  0
   27.4830   16.2230   22.7730 N   0  0  0  0  0  0  0  0  0  0  0  0
   27.3600   15.4520   21.5370 C   0  0  0  0  0  0  0  0  0  0  0  0
   27.2530   16.5390   20.4640 C   0  0  0  0  0  0  0  0  0  0  0  0
   28.6400   14.6910   21.2700 C   0  0  0  0  0  0  0  0  0  0  0  0
   28.9330   13.4910   22.5440 S   0  0  0  0  0  0  0  0  0  0  0  0
   30.3710   13.3020   22.6130 O   0  0  0  0  0  0  0  0  0  0  0  0
   27.9840   12.4230   22.4910 O   0  0  0  0  0  0  0  0  0  0  0  0
   27.6350   17.2980   25.0970 H   0  0  0  0  0  0  0  0  0  0  0  0
   28.3530   15.9490   25.8540 H   0  0  0  0  0  0  0  0  0  0  0  0
   23.5600   13.4820   23.9150 N   0  0  0  0  0  0  0  0  0  0  0  0
   23.5520   12.3830   24.7550 C   0  0  0  0  0  0  0  0  0  0  0  0
   24.0220   11.2850   24.4830 O   0  0  0  0  0  0  0  0  0  0  0  0
   23.0440   14.2620   24.2240 H   0  0  0  0  0  0  0  0  0  0  0  0
   22.9490   12.6100   26.0910 C   0  0  0  0  0  0  0  0  0  0  0  0
   21.8950   11.8200   26.5170 C   0  0  0  0  0  0  0  0  0  0  0  0
   21.3690   12.0770   27.7700 C   0  0  0  0  0  0  0  0  0  0  0  0
   21.9010   13.0900   28.5450 C   0  0  0  0  0  0  0  0  0  0  0  0
   21.4170   13.3830   29.7640 F   0  0  0  0  0  0  0  0  0  0  0  0
   22.9450   13.8260   28.0320 C   0  0  0  0  0  0  0  0  0  0  0  0
   23.4720   13.6040   26.8170 N   0  0  0  0  0  0  0  0  0  0  0  0
  8  9  1  0
  9 10  1  0
 10 11  1  0
 10 12  2  0
 12 13  1  0
 13 14  1  0
 13  1  1  0
  1  2  2  0
  2  3  1  0
  3 21  1  0
 21 22  1  0
 22 23  2  0
 22 25  1  0
 25 26  2  0
 26 27  1  0
 27 28  2  0
 28 29  1  0
 28 30  1  0
 30 31  2  0
  3  4  2  0
  4  5  1  0
  5  6  2  0
  6  7  1  0
 13 15  1  0
 15 16  1  0
 16 17  2  0
 16 18  2  0
 16  9  1  0
  6  1  1  0
 31 25  1  0
 11 19  1  0
 11 20  1  0
 21 24  1  0
M  END
> <meeko>
{"is_sidechain": false}

> <source_group>
BACE1-476

> <source_system>
BACE1_verubecestat

> <source_run>
alternate_476_seed2207_ex32

> <source_seed>
2207

> <vina_pose_rank>
15

> <vina_affinity_kcal_mol>
-7.1890000000000001

> <vina_rmsd_to_crystal_angstrom>
7.8442999999999996

> <minimizedAffinity>
-7.29268

> <CNNscore>
0.0067515704

> <CNNaffinity>
3.8045873642

> <CNN_VS>
0.0256869402

> <CNNaffinity_variance>
1.1730928421

$$$$
BACE1_verubecestat__alternate_476_seed2207_ex32__pose16


 31 33  0  0  0  0  0  0  0  0999 V2000
   26.7250   14.0810   23.2210 C   0  0  0  0  0  0  0  0  0  0  0  0
   25.4100   13.6560   23.3990 C   0  0  0  0  0  0  0  0  0  0  0  0
   24.8380   13.5330   24.6450 C   0  0  0  0  0  0  0  0  0  0  0  0
   25.5760   13.8140   25.7890 C   0  0  0  0  0  0  0  0  0  0  0  0
   26.8830   14.2410   25.6300 C   0  0  0  0  0  0  0  0  0  0  0  0
   27.4330   14.3900   24.3730 C   0  0  0  0  0  0  0  0  0  0  0  0
   28.7080   14.8380   24.2440 F   0  0  0  0  0  0  0  0  0  0  0  0
   28.8160   10.1540   21.6860 C   0  0  0  0  0  0  0  0  0  0  0  0
   28.3320   11.5470   21.6120 N   0  0  0  0  0  0  0  0  0  0  0  0
   29.1780   12.6660   21.7730 C   0  0  0  0  0  0  0  0  0  0  0  0
   30.5080   12.3500   21.8500 N   0  0  0  0  0  0  0  0  0  0  0  0
   28.7540   13.8910   21.8190 N   0  0  0  0  0  0  0  0  0  0  0  0
   27.3270   14.2100   21.8300 C   0  0  0  0  0  0  0  0  0  0  0  0
   27.3020   15.6830   21.4150 C   0  0  0  0  0  0  0  0  0  0  0  0
   26.6130   13.4320   20.7480 C   0  0  0  0  0  0  0  0  0  0  0  0
   26.7060   11.6870   21.0640 S   0  0  0  0  0  0  0  0  0  0  0  0
   26.6290   11.0280   19.7730 O   0  0  0  0  0  0  0  0  0  0  0  0
   25.9270   11.3160   22.2040 O   0  0  0  0  0  0  0  0  0  0  0  0
   31.1780   13.0630   21.9620 H   0  0  0  0  0  0  0  0  0  0  0  0
   30.7950   11.4100   21.7930 H   0  0  0  0  0  0  0  0  0  0  0  0
   23.5080   13.0930   24.6860 N   0  0  0  0  0  0  0  0  0  0  0  0
   23.0300   11.8420   25.0300 C   0  0  0  0  0  0  0  0  0  0  0  0
   23.7240   10.8550   25.2370 O   0  0  0  0  0  0  0  0  0  0  0  0
   22.8280   13.7610   24.4380 H   0  0  0  0  0  0  0  0  0  0  0  0
   21.5580   11.7460   25.1810 C   0  0  0  0  0  0  0  0  0  0  0  0
   20.7970   12.8990   25.2790 C   0  0  0  0  0  0  0  0  0  0  0  0
   19.4280   12.7510   25.4200 C   0  0  0  0  0  0  0  0  0  0  0  0
   18.8730   11.4870   25.4550 C   0  0  0  0  0  0  0  0  0  0  0  0
   17.5510   11.2940   25.6000 F   0  0  0  0  0  0  0  0  0  0  0  0
   19.7130   10.4010   25.3560 C   0  0  0  0  0  0  0  0  0  0  0  0
   21.0450   10.5120   25.2240 N   0  0  0  0  0  0  0  0  0  0  0  0
  8  9  1  0
  9 10  1  0
 10 11  1  0
 10 12  2  0
 12 13  1  0
 13 14  1  0
 13  1  1  0
  1  2  2  0
  2  3  1  0
  3 21  1  0
 21 22  1  0
 22 23  2  0
 22 25  1  0
 25 26  2  0
 26 27  1  0
 27 28  2  0
 28 29  1  0
 28 30  1  0
 30 31  2  0
  3  4  2  0
  4  5  1  0
  5  6  2  0
  6  7  1  0
 13 15  1  0
 15 16  1  0
 16 17  2  0
 16 18  2  0
 16  9  1  0
  6  1  1  0
 31 25  1  0
 11 19  1  0
 11 20  1  0
 21 24  1  0
M  END
> <meeko>
{"is_sidechain": false}

> <source_group>
BACE1-476

> <source_system>
BACE1_verubecestat

> <source_run>
alternate_476_seed2207_ex32

> <source_seed>
2207

> <vina_pose_rank>
16

> <vina_affinity_kcal_mol>
-7.1470000000000002

> <vina_rmsd_to_crystal_angstrom>
8.2786000000000008

> <minimizedAffinity>
-7.70884

> <CNNscore>
0.0179467425

> <CNNaffinity>
4.1044712067

> <CNN_VS>
0.0736618862

> <CNNaffinity_variance>
1.3617454767

$$$$
BACE1_verubecestat__alternate_476_seed2207_ex32__pose17


 31 33  0  0  0  0  0  0  0  0999 V2000
   26.4130   14.5240   22.6020 C   0  0  0  0  0  0  0  0  0  0  0  0
   26.6730   15.1310   21.3740 C   0  0  0  0  0  0  0  0  0  0  0  0
   27.8980   15.6790   21.0680 C   0  0  0  0  0  0  0  0  0  0  0  0
   28.9280   15.6630   22.0000 C   0  0  0  0  0  0  0  0  0  0  0  0
   28.6890   15.0610   23.2230 C   0  0  0  0  0  0  0  0  0  0  0  0
   27.4650   14.4880   23.5040 C   0  0  0  0  0  0  0  0  0  0  0  0
   27.2660   13.8770   24.7010 F   0  0  0  0  0  0  0  0  0  0  0  0
   24.8140   11.6270   19.2550 C   0  0  0  0  0  0  0  0  0  0  0  0
   24.7960   12.3460   20.5450 N   0  0  0  0  0  0  0  0  0  0  0  0
   24.0210   13.5050   20.7690 C   0  0  0  0  0  0  0  0  0  0  0  0
   23.1750   13.8160   19.7380 N   0  0  0  0  0  0  0  0  0  0  0  0
   24.0750   14.2110   21.8560 N   0  0  0  0  0  0  0  0  0  0  0  0
   25.0490   13.9250   22.9090 C   0  0  0  0  0  0  0  0  0  0  0  0
   24.4580   14.6410   24.1260 C   0  0  0  0  0  0  0  0  0  0  0  0
   25.0550   12.4460   23.2240 C   0  0  0  0  0  0  0  0  0  0  0  0
   25.5960   11.5080   21.8180 S   0  0  0  0  0  0  0  0  0  0  0  0
   24.9750   10.2000   21.9290 O   0  0  0  0  0  0  0  0  0  0  0  0
   26.9840   11.7180   21.5460 O   0  0  0  0  0  0  0  0  0  0  0  0
   22.5930   14.6070   19.8010 H   0  0  0  0  0  0  0  0  0  0  0  0
   23.1480   13.2470   18.9350 H   0  0  0  0  0  0  0  0  0  0  0  0
   28.0270   16.2610   19.8010 N   0  0  0  0  0  0  0  0  0  0  0  0
   28.2080   17.5960   19.4850 C   0  0  0  0  0  0  0  0  0  0  0  0
   28.1560   18.5220   20.2830 O   0  0  0  0  0  0  0  0  0  0  0  0
   27.9830   15.6410   19.0370 H   0  0  0  0  0  0  0  0  0  0  0  0
   28.5220   17.8730   18.0620 C   0  0  0  0  0  0  0  0  0  0  0  0
   27.4970   18.1130   17.1630 C   0  0  0  0  0  0  0  0  0  0  0  0
   27.8470   18.3640   15.8480 C   0  0  0  0  0  0  0  0  0  0  0  0
   29.1780   18.3710   15.4790 C   0  0  0  0  0  0  0  0  0  0  0  0
   29.5650   18.6000   14.2120 F   0  0  0  0  0  0  0  0  0  0  0  0
   30.1250   18.1150   16.4440 C   0  0  0  0  0  0  0  0  0  0  0  0
   29.8160   17.8620   17.7270 N   0  0  0  0  0  0  0  0  0  0  0  0
  8  9  1  0
  9 10  1  0
 10 11  1  0
 10 12  2  0
 12 13  1  0
 13 14  1  0
 13  1  1  0
  1  2  2  0
  2  3  1  0
  3 21  1  0
 21 22  1  0
 22 23  2  0
 22 25  1  0
 25 26  2  0
 26 27  1  0
 27 28  2  0
 28 29  1  0
 28 30  1  0
 30 31  2  0
  3  4  2  0
  4  5  1  0
  5  6  2  0
  6  7  1  0
 13 15  1  0
 15 16  1  0
 16 17  2  0
 16 18  2  0
 16  9  1  0
  6  1  1  0
 31 25  1  0
 11 19  1  0
 11 20  1  0
 21 24  1  0
M  END
> <meeko>
{"is_sidechain": false}

> <source_group>
BACE1-476

> <source_system>
BACE1_verubecestat

> <source_run>
alternate_476_seed2207_ex32

> <source_seed>
2207

> <vina_pose_rank>
17

> <vina_affinity_kcal_mol>
-7.0640000000000001

> <vina_rmsd_to_crystal_angstrom>
7.7380000000000004

> <minimizedAffinity>
-7.04353

> <CNNscore>
0.0636653975

> <CNNaffinity>
4.3818459511

> <CNN_VS>
0.2789719701

> <CNNaffinity_variance>
1.1199660301

$$$$
BACE1_verubecestat__alternate_476_seed2207_ex32__pose18


 31 33  0  0  0  0  0  0  0  0999 V2000
   18.5310   12.0040   26.3920 C   0  0  0  0  0  0  0  0  0  0  0  0
   19.5910   12.4330   25.5950 C   0  0  0  0  0  0  0  0  0  0  0  0
   20.8470   12.6710   26.1060 C   0  0  0  0  0  0  0  0  0  0  0  0
   21.0970   12.5080   27.4620 C   0  0  0  0  0  0  0  0  0  0  0  0
   20.0580   12.0780   28.2680 C   0  0  0  0  0  0  0  0  0  0  0  0
   18.8110   11.8130   27.7370 C   0  0  0  0  0  0  0  0  0  0  0  0
   17.8160   11.3650   28.5440 F   0  0  0  0  0  0  0  0  0  0  0  0
   15.2470   15.0600   27.8150 C   0  0  0  0  0  0  0  0  0  0  0  0
   15.7950   13.9200   27.0550 N   0  0  0  0  0  0  0  0  0  0  0  0
   15.5750   12.5730   27.4210 C   0  0  0  0  0  0  0  0  0  0  0  0
   14.6860   12.4160   28.4500 N   0  0  0  0  0  0  0  0  0  0  0  0
   16.1370   11.5640   26.8300 N   0  0  0  0  0  0  0  0  0  0  0  0
   17.1550   11.7470   25.7980 C   0  0  0  0  0  0  0  0  0  0  0  0
   17.1690   10.3920   25.0850 C   0  0  0  0  0  0  0  0  0  0  0  0
   16.6920   12.7740   24.7880 C   0  0  0  0  0  0  0  0  0  0  0  0
   16.5060   14.3650   25.5520 S   0  0  0  0  0  0  0  0  0  0  0  0
   15.4940   15.0740   24.7900 O   0  0  0  0  0  0  0  0  0  0  0  0
   17.7700   14.9230   25.9230 O   0  0  0  0  0  0  0  0  0  0  0  0
   14.4670   11.5130   28.7770 H   0  0  0  0  0  0  0  0  0  0  0  0
   14.2650   13.2050   28.8630 H   0  0  0  0  0  0  0  0  0  0  0  0
   21.8230   13.1010   25.1970 N   0  0  0  0  0  0  0  0  0  0  0  0
   22.5970   12.3350   24.3440 C   0  0  0  0  0  0  0  0  0  0  0  0
   22.6420   11.1120   24.3400 O   0  0  0  0  0  0  0  0  0  0  0  0
   21.9770   14.0730   25.1610 H   0  0  0  0  0  0  0  0  0  0  0  0
   23.3910   13.1000   23.3520 C   0  0  0  0  0  0  0  0  0  0  0  0
   23.4290   12.6870   22.0310 C   0  0  0  0  0  0  0  0  0  0  0  0
   24.1870   13.4360   21.1480 C   0  0  0  0  0  0  0  0  0  0  0  0
   24.8670   14.5510   21.6000 C   0  0  0  0  0  0  0  0  0  0  0  0
   25.6230   15.3030   20.7820 F   0  0  0  0  0  0  0  0  0  0  0  0
   24.7730   14.8780   22.9340 C   0  0  0  0  0  0  0  0  0  0  0  0
   24.0500   14.1670   23.8150 N   0  0  0  0  0  0  0  0  0  0  0  0
  8  9  1  0
  9 10  1  0
 10 11  1  0
 10 12  2  0
 12 13  1  0
 13 14  1  0
 13  1  1  0
  1  2  2  0
  2  3  1  0
  3 21  1  0
 21 22  1  0
 22 23  2  0
 22 25  1  0
 25 26  2  0
 26 27  1  0
 27 28  2  0
 28 29  1  0
 28 30  1  0
 30 31  2  0
  3  4  2  0
  4  5  1  0
  5  6  2  0
  6  7  1  0
 13 15  1  0
 15 16  1  0
 16 17  2  0
 16 18  2  0
 16  9  1  0
  6  1  1  0
 31 25  1  0
 11 19  1  0
 11 20  1  0
 21 24  1  0
M  END
> <meeko>
{"is_sidechain": false}

> <source_group>
BACE1-476

> <source_system>
BACE1_verubecestat

> <source_run>
alternate_476_seed2207_ex32

> <source_seed>
2207

> <vina_pose_rank>
18

> <vina_affinity_kcal_mol>
-7.0270000000000001

> <vina_rmsd_to_crystal_angstrom>
7.6574

> <minimizedAffinity>
-7.59684

> <CNNscore>
0.1197952926

> <CNNaffinity>
5.3552966118

> <CNN_VS>
0.6415393353

> <CNNaffinity_variance>
0.0890157521

$$$$
BACE1_verubecestat__alternate_476_seed2207_ex32__pose19


 31 33  0  0  0  0  0  0  0  0999 V2000
   25.0340   13.5990   23.3670 C   0  0  0  0  0  0  0  0  0  0  0  0
   25.9060   14.3900   22.6220 C   0  0  0  0  0  0  0  0  0  0  0  0
   27.0910   14.8660   23.1360 C   0  0  0  0  0  0  0  0  0  0  0  0
   27.4510   14.5850   24.4480 C   0  0  0  0  0  0  0  0  0  0  0  0
   26.5980   13.7980   25.2020 C   0  0  0  0  0  0  0  0  0  0  0  0
   25.4290   13.3010   24.6620 C   0  0  0  0  0  0  0  0  0  0  0  0
   24.6240   12.5070   25.4140 F   0  0  0  0  0  0  0  0  0  0  0  0
   25.4730   11.9840   18.9690 C   0  0  0  0  0  0  0  0  0  0  0  0
   24.7770   12.2960   20.2320 N   0  0  0  0  0  0  0  0  0  0  0  0
   23.9310   13.4160   20.3890 C   0  0  0  0  0  0  0  0  0  0  0  0
   23.6940   14.1000   19.2270 N   0  0  0  0  0  0  0  0  0  0  0  0
   23.3980   13.7660   21.5190 N   0  0  0  0  0  0  0  0  0  0  0  0
   23.7330   13.0860   22.7690 C   0  0  0  0  0  0  0  0  0  0  0  0
   22.5760   13.4770   23.6930 C   0  0  0  0  0  0  0  0  0  0  0  0
   23.6620   11.5870   22.5800 C   0  0  0  0  0  0  0  0  0  0  0  0
   24.8820   11.0440   21.4100 S   0  0  0  0  0  0  0  0  0  0  0  0
   24.3600    9.8350   20.7990 O   0  0  0  0  0  0  0  0  0  0  0  0
   26.2070   11.1750   21.9300 O   0  0  0  0  0  0  0  0  0  0  0  0
   23.1160   14.8970   19.2340 H   0  0  0  0  0  0  0  0  0  0  0  0
   24.1010   13.7950   18.3840 H   0  0  0  0  0  0  0  0  0  0  0  0
   27.8750   15.6530   22.2830 N   0  0  0  0  0  0  0  0  0  0  0  0
   29.2250   15.5330   22.0070 C   0  0  0  0  0  0  0  0  0  0  0  0
   29.9970   14.7770   22.5810 O   0  0  0  0  0  0  0  0  0  0  0  0
   27.4050   16.3840   21.8200 H   0  0  0  0  0  0  0  0  0  0  0  0
   29.7230   16.3840   20.8980 C   0  0  0  0  0  0  0  0  0  0  0  0
   28.8280   17.0990   20.1210 C   0  0  0  0  0  0  0  0  0  0  0  0
   29.3470   17.8740   19.0990 C   0  0  0  0  0  0  0  0  0  0  0  0
   30.7120   17.9140   18.8900 C   0  0  0  0  0  0  0  0  0  0  0  0
   31.2610   18.6450   17.9050 F   0  0  0  0  0  0  0  0  0  0  0  0
   31.5210   17.1630   19.7130 C   0  0  0  0  0  0  0  0  0  0  0  0
   31.0460   16.3970   20.7090 N   0  0  0  0  0  0  0  0  0  0  0  0
  8  9  1  0
  9 10  1  0
 10 11  1  0
 10 12  2  0
 12 13  1  0
 13 14  1  0
 13  1  1  0
  1  2  2  0
  2  3  1  0
  3 21  1  0
 21 22  1  0
 22 23  2  0
 22 25  1  0
 25 26  2  0
 26 27  1  0
 27 28  2  0
 28 29  1  0
 28 30  1  0
 30 31  2  0
  3  4  2  0
  4  5  1  0
  5  6  2  0
  6  7  1  0
 13 15  1  0
 15 16  1  0
 16 17  2  0
 16 18  2  0
 16  9  1  0
  6  1  1  0
 31 25  1  0
 11 19  1  0
 11 20  1  0
 21 24  1  0
M  END
> <meeko>
{"is_sidechain": false}

> <source_group>
BACE1-476

> <source_system>
BACE1_verubecestat

> <source_run>
alternate_476_seed2207_ex32

> <source_seed>
2207

> <vina_pose_rank>
19

> <vina_affinity_kcal_mol>
-7.0179999999999998

> <vina_rmsd_to_crystal_angstrom>
6.5749000000000004

> <minimizedAffinity>
-7.20008

> <CNNscore>
0.0720574856

> <CNNaffinity>
4.8286547661

> <CNN_VS>
0.3479407132

> <CNNaffinity_variance>
0.6843250394

$$$$
