
     RDKit          3D

 54 61  0  0  0  0  0  0  0  0999 V2000
   -3.0981   -0.7137    1.6813 C   0  0  0  0  0  0  0  0  0  0  0  0
   -2.1257   -0.0478    0.6964 C   0  0  2  0  0  0  0  0  0  0  0  0
   -1.5149    1.0178    1.4798 O   0  0  0  0  0  0  0  0  0  0  0  0
   -1.0393    2.0333    0.5694 C   0  0  2  0  0  0  0  0  0  0  0  0
   -1.7209    1.8030   -0.7810 C   0  0  0  0  0  0  0  0  0  0  0  0
   -2.7740    0.7381   -0.4759 C   0  0  1  0  0  0  0  0  0  0  0  0
   -3.0755   -0.0340   -1.6465 O   0  0  0  0  0  0  0  0  0  0  0  0
   -4.1022    1.4143   -0.0661 C   0  0  0  0  0  0  0  0  0  0  0  0
   -4.6121    2.1854   -1.1561 O   0  0  0  0  0  0  0  0  0  0  0  0
    0.4023    1.8782    0.4984 N   0  0  0  0  0  0  0  0  0  0  0  0
    1.3761    2.8491    0.5562 C   0  0  0  0  0  0  0  0  0  0  0  0
    1.2833    4.2407    0.7224 C   0  0  0  0  0  0  0  0  0  0  0  0
    2.4660    4.9841    0.7420 C   0  0  0  0  0  0  0  0  0  0  0  0
    3.7019    4.3646    0.5987 C   0  0  0  0  0  0  0  0  0  0  0  0
    3.7885    2.9786    0.4302 C   0  0  0  0  0  0  0  0  0  0  0  0
    2.6162    2.1933    0.4068 C   0  0  0  0  0  0  0  0  0  0  0  0
    2.3555    0.7957    0.2426 C   0  0  0  0  0  0  0  0  0  0  0  0
    3.0337   -0.4128    0.0274 C   0  0  0  0  0  0  0  0  0  0  0  0
    2.3989   -1.6881   -0.1436 C   0  0  0  0  0  0  0  0  0  0  0  0
    1.0002   -1.8404   -0.0954 C   0  0  0  0  0  0  0  0  0  0  0  0
    0.0477   -2.8762   -0.3011 C   0  0  0  0  0  0  0  0  0  0  0  0
    0.1629   -4.2395   -0.6500 C   0  0  0  0  0  0  0  0  0  0  0  0
   -0.9852   -4.9999   -0.8813 C   0  0  0  0  0  0  0  0  0  0  0  0
   -2.2419   -4.4181   -0.7860 C   0  0  0  0  0  0  0  0  0  0  0  0
   -2.3881   -3.0731   -0.4330 C   0  0  0  0  0  0  0  0  0  0  0  0
   -1.2359   -2.3122   -0.1625 C   0  0  0  0  0  0  0  0  0  0  0  0
   -1.0678   -0.9917    0.2544 N   0  0  0  0  0  0  0  0  0  0  0  0
    0.2700   -0.7025    0.1687 C   0  0  0  0  0  0  0  0  0  0  0  0
    0.9858    0.6654    0.3185 C   0  0  0  0  0  0  0  0  0  0  0  0
    3.4536   -2.7262   -0.3963 C   0  0  0  0  0  0  0  0  0  0  0  0
    4.6739   -1.9694   -0.3461 N   0  0  0  0  0  0  0  0  0  0  0  0
    4.4804   -0.6266   -0.1072 C   0  0  0  0  0  0  0  0  0  0  0  0
    5.3651    0.2015   -0.0311 O   0  0  0  0  0  0  0  0  0  0  0  0
   -3.6325    0.0346    2.2791 H   0  0  0  0  0  0  0  0  0  0  0  0
   -2.5583   -1.3381    2.4037 H   0  0  0  0  0  0  0  0  0  0  0  0
   -3.8489   -1.3326    1.1873 H   0  0  0  0  0  0  0  0  0  0  0  0
   -1.2765    3.0100    0.9997 H   0  0  0  0  0  0  0  0  0  0  0  0
   -1.0228    1.4627   -1.5562 H   0  0  0  0  0  0  0  0  0  0  0  0
   -2.1426    2.7373   -1.1675 H   0  0  0  0  0  0  0  0  0  0  0  0
   -2.2510   -0.4363   -1.9825 H   0  0  0  0  0  0  0  0  0  0  0  0
   -3.9848    2.0803    0.7942 H   0  0  0  0  0  0  0  0  0  0  0  0
   -4.8694    0.6693    0.1677 H   0  0  0  0  0  0  0  0  0  0  0  0
   -4.5888    1.5858   -1.9293 H   0  0  0  0  0  0  0  0  0  0  0  0
    0.3275    4.7411    0.8380 H   0  0  0  0  0  0  0  0  0  0  0  0
    2.4194    6.0629    0.8725 H   0  0  0  0  0  0  0  0  0  0  0  0
    4.6131    4.9573    0.6165 H   0  0  0  0  0  0  0  0  0  0  0  0
    4.7651    2.5154    0.3176 H   0  0  0  0  0  0  0  0  0  0  0  0
    1.1404   -4.6997   -0.7592 H   0  0  0  0  0  0  0  0  0  0  0  0
   -0.8919   -6.0478   -1.1557 H   0  0  0  0  0  0  0  0  0  0  0  0
   -3.1275   -5.0162   -0.9911 H   0  0  0  0  0  0  0  0  0  0  0  0
   -3.3848   -2.6475   -0.3943 H   0  0  0  0  0  0  0  0  0  0  0  0
    3.3554   -3.1775   -1.3869 H   0  0  0  0  0  0  0  0  0  0  0  0
    3.4734   -3.4890    0.3862 H   0  0  0  0  0  0  0  0  0  0  0  0
    5.6047   -2.3428   -0.4737 H   0  0  0  0  0  0  0  0  0  0  0  0
  2  1  1  1
  2  3  1  0
  3  4  1  0
  4  5  1  0
  5  6  1  0
  6  7  1  6
  6  8  1  0
  8  9  1  0
  4 10  1  0
 10 11  1  0
 11 12  2  0
 12 13  1  0
 13 14  2  0
 14 15  1  0
 15 16  2  0
 16 17  1  0
 17 18  2  0
 18 19  1  0
 19 20  2  0
 20 21  1  0
 21 22  2  0
 22 23  1  0
 23 24  2  0
 24 25  1  0
 25 26  2  0
 26 27  1  0
 27 28  1  0
 28 29  2  0
 19 30  1  0
 30 31  1  0
 31 32  1  0
 32 33  2  0
  6  2  1  0
 29 10  1  0
 27  2  1  0
 16 11  1  0
 29 17  1  0
 32 18  1  0
 28 20  1  0
 26 21  1  0
  1 34  1  0
  1 35  1  0
  1 36  1  0
  4 37  1  1
  5 38  1  0
  5 39  1  0
  7 40  1  0
  8 41  1  0
  8 42  1  0
  9 43  1  0
 12 44  1  0
 13 45  1  0
 14 46  1  0
 15 47  1  0
 22 48  1  0
 23 49  1  0
 24 50  1  0
 25 51  1  0
 30 52  1  0
 30 53  1  0
 31 54  1  0
M  END
$$$$
