
     RDKit          3D

 61 68  0  0  0  0  0  0  0  0999 V2000
   -2.0074   -1.3673    2.3110 C   0  0  0  0  0  0  0  0  0  0  0  0
   -1.8226   -0.4502    1.1979 N   0  0  0  0  0  0  0  0  0  0  0  0
   -2.6313   -0.7671    0.0183 C   0  0  2  0  0  0  0  0  0  0  0  0
   -2.1326   -1.9807   -0.7636 C   0  0  0  0  0  0  0  0  0  0  0  0
   -0.8760   -1.7205   -1.5891 C   0  0  1  0  0  0  0  0  0  0  0  0
   -0.8821   -0.5063   -2.3396 O   0  0  0  0  0  0  0  0  0  0  0  0
   -1.3639    0.7029   -1.6954 C   0  0  1  0  0  0  0  0  0  0  0  0
   -1.6391    1.5856   -2.9392 C   0  0  0  0  0  0  0  0  0  0  0  0
   -2.7186    0.4332   -0.9581 C   0  0  2  0  0  0  0  0  0  0  0  0
   -3.2374    1.6147   -0.3257 O   0  0  0  0  0  0  0  0  0  0  0  0
   -4.6136    1.5462    0.0192 C   0  0  0  0  0  0  0  0  0  0  0  0
   -0.2974    1.3141   -0.8665 N   0  0  0  0  0  0  0  0  0  0  0  0
   -0.1837    2.6595   -0.4867 C   0  0  0  0  0  0  0  0  0  0  0  0
   -1.0480    3.7643   -0.6252 C   0  0  0  0  0  0  0  0  0  0  0  0
   -0.6361    5.0230   -0.1752 C   0  0  0  0  0  0  0  0  0  0  0  0
    0.6065    5.1970    0.4131 C   0  0  0  0  0  0  0  0  0  0  0  0
    1.4583    4.1052    0.5819 C   0  0  0  0  0  0  0  0  0  0  0  0
    1.0650    2.8214    0.1405 C   0  0  0  0  0  0  0  0  0  0  0  0
    1.6720    1.5421    0.2261 C   0  0  0  0  0  0  0  0  0  0  0  0
    2.8538    1.0071    0.7678 C   0  0  0  0  0  0  0  0  0  0  0  0
    3.1329   -0.3930    0.7417 C   0  0  0  0  0  0  0  0  0  0  0  0
    2.2867   -1.3641    0.1901 C   0  0  0  0  0  0  0  0  0  0  0  0
    2.2286   -2.7820    0.0246 C   0  0  0  0  0  0  0  0  0  0  0  0
    3.0773   -3.8533    0.3779 C   0  0  0  0  0  0  0  0  0  0  0  0
    2.7165   -5.1691    0.0698 C   0  0  0  0  0  0  0  0  0  0  0  0
    1.5215   -5.4380   -0.5849 C   0  0  0  0  0  0  0  0  0  0  0  0
    0.6570   -4.4032   -0.9493 C   0  0  0  0  0  0  0  0  0  0  0  0
    1.0257   -3.0817   -0.6376 C   0  0  0  0  0  0  0  0  0  0  0  0
    0.3806   -1.8786   -0.8752 N   0  0  0  0  0  0  0  0  0  0  0  0
    1.1277   -0.8641   -0.3768 C   0  0  0  0  0  0  0  0  0  0  0  0
    0.7995    0.6540   -0.3695 C   0  0  0  0  0  0  0  0  0  0  0  0
    4.4275   -0.5892    1.4098 C   0  0  0  0  0  0  0  0  0  0  0  0
    5.0226   -1.6306    1.5995 O   0  0  0  0  0  0  0  0  0  0  0  0
    4.8762    0.6525    1.8037 N   0  0  0  0  0  0  0  0  0  0  0  0
    3.9754    1.7184    1.4653 C   0  0  0  0  0  0  0  0  0  0  0  0
   -3.0494   -1.3875    2.6456 H   0  0  0  0  0  0  0  0  0  0  0  0
   -1.6902   -2.3831    2.0598 H   0  0  0  0  0  0  0  0  0  0  0  0
   -1.3921   -1.0389    3.1546 H   0  0  0  0  0  0  0  0  0  0  0  0
   -2.0240    0.5063    1.5051 H   0  0  0  0  0  0  0  0  0  0  0  0
   -3.6481   -0.9881    0.3659 H   0  0  0  0  0  0  0  0  0  0  0  0
   -2.9326   -2.2493   -1.4685 H   0  0  0  0  0  0  0  0  0  0  0  0
   -2.0081   -2.8560   -0.1167 H   0  0  0  0  0  0  0  0  0  0  0  0
   -0.8421   -2.4989   -2.3618 H   0  0  0  0  0  0  0  0  0  0  0  0
   -2.2298    2.4768   -2.7256 H   0  0  0  0  0  0  0  0  0  0  0  0
   -2.1949    1.0181   -3.6971 H   0  0  0  0  0  0  0  0  0  0  0  0
   -0.7023    1.8960   -3.4181 H   0  0  0  0  0  0  0  0  0  0  0  0
   -3.4389    0.1417   -1.7380 H   0  0  0  0  0  0  0  0  0  0  0  0
   -4.7746    0.8535    0.8488 H   0  0  0  0  0  0  0  0  0  0  0  0
   -4.9306    2.5409    0.3447 H   0  0  0  0  0  0  0  0  0  0  0  0
   -5.2194    1.2560   -0.8442 H   0  0  0  0  0  0  0  0  0  0  0  0
   -2.0394    3.6704   -1.0512 H   0  0  0  0  0  0  0  0  0  0  0  0
   -1.3048    5.8736   -0.2849 H   0  0  0  0  0  0  0  0  0  0  0  0
    0.9125    6.1807    0.7585 H   0  0  0  0  0  0  0  0  0  0  0  0
    2.4193    4.2487    1.0658 H   0  0  0  0  0  0  0  0  0  0  0  0
    4.0162   -3.6671    0.8914 H   0  0  0  0  0  0  0  0  0  0  0  0
    3.3814   -5.9830    0.3476 H   0  0  0  0  0  0  0  0  0  0  0  0
    1.2569   -6.4666   -0.8176 H   0  0  0  0  0  0  0  0  0  0  0  0
   -0.2721   -4.6311   -1.4609 H   0  0  0  0  0  0  0  0  0  0  0  0
    5.7545    0.7547    2.2929 H   0  0  0  0  0  0  0  0  0  0  0  0
    3.6426    2.2074    2.3844 H   0  0  0  0  0  0  0  0  0  0  0  0
    4.4882    2.4228    0.8054 H   0  0  0  0  0  0  0  0  0  0  0  0
  1  2  1  0
  2  3  1  0
  3  4  1  0
  4  5  1  0
  5  6  1  0
  6  7  1  0
  7  8  1  6
  7  9  1  0
  9 10  1  0
 10 11  1  0
  7 12  1  0
 12 13  1  0
 13 14  2  0
 14 15  1  0
 15 16  2  0
 16 17  1  0
 17 18  2  0
 18 19  1  0
 19 20  2  0
 20 21  1  0
 21 22  2  0
 22 23  1  0
 23 24  2  0
 24 25  1  0
 25 26  2  0
 26 27  1  0
 27 28  2  0
 28 29  1  0
 29 30  1  0
 30 31  2  0
 21 32  1  0
 32 33  2  0
 32 34  1  0
 34 35  1  0
  9  3  1  0
 31 12  1  0
 29  5  1  0
 18 13  1  0
 31 19  1  0
 35 20  1  0
 30 22  1  0
 28 23  1  0
  1 36  1  0
  1 37  1  0
  1 38  1  0
  2 39  1  0
  3 40  1  1
  4 41  1  0
  4 42  1  0
  5 43  1  6
  8 44  1  0
  8 45  1  0
  8 46  1  0
  9 47  1  6
 11 48  1  0
 11 49  1  0
 11 50  1  0
 14 51  1  0
 15 52  1  0
 16 53  1  0
 17 54  1  0
 24 55  1  0
 25 56  1  0
 26 57  1  0
 27 58  1  0
 34 59  1  0
 35 60  1  0
 35 61  1  0
M  END
$$$$
