
     RDKit          3D

 51 53  0  0  0  0  0  0  0  0999 V2000
    3.5966    1.9379    1.5772 C   0  0  0  0  0  0  0  0  0  0  0  0
    3.2883    0.5643    1.3189 O   0  0  0  0  0  0  0  0  0  0  0  0
    4.3805   -0.0860    0.8110 C   0  0  0  0  0  0  0  0  0  0  0  0
    5.2289   -0.7402    1.7092 C   0  0  0  0  0  0  0  0  0  0  0  0
    6.3391   -1.4365    1.2308 C   0  0  0  0  0  0  0  0  0  0  0  0
    6.5816   -1.4858   -0.1396 C   0  0  0  0  0  0  0  0  0  0  0  0
    7.6420   -2.1704   -0.5892 F   0  0  0  0  0  0  0  0  0  0  0  0
    5.7280   -0.8543   -1.0384 C   0  0  0  0  0  0  0  0  0  0  0  0
    5.9653   -0.9632   -2.3537 F   0  0  0  0  0  0  0  0  0  0  0  0
    4.6149   -0.1608   -0.5684 C   0  0  0  0  0  0  0  0  0  0  0  0
    3.7307    0.5085   -1.5381 C   0  0  0  0  0  0  0  0  0  0  0  0
    4.2188    1.2745   -2.3643 O   0  0  0  0  0  0  0  0  0  0  0  0
    2.2751    0.2797   -1.5152 C   0  0  0  0  0  0  0  0  0  0  0  0
    1.7333   -0.9583   -1.2611 C   0  0  0  0  0  0  0  0  0  0  0  0
    0.4079   -1.2035   -1.2653 N   0  0  0  0  0  0  0  0  0  0  0  0
   -0.3962   -0.1709   -1.5489 C   0  0  0  0  0  0  0  0  0  0  0  0
   -1.7691   -0.3327   -1.5754 N   0  0  0  0  0  0  0  0  0  0  0  0
   -2.3545   -1.3493   -0.7058 C   0  0  0  0  0  0  0  0  0  0  0  0
   -2.3000   -0.9530    0.7736 C   0  0  0  0  0  0  0  0  0  0  0  0
   -3.2758    0.1683    1.1082 C   0  0  0  0  0  0  0  0  0  0  0  0
   -4.6561   -0.2420    0.7244 N   0  0  0  0  0  0  0  0  0  0  0  0
   -5.8975    0.7862    1.3056 S   0  0  0  0  0  0  0  0  0  0  0  0
   -5.9003    0.4128    3.0475 C   0  0  0  0  0  0  0  0  0  0  0  0
   -7.1538    0.3180    0.7607 O   0  0  0  0  0  0  0  0  0  0  0  0
   -5.4595    2.1520    1.1162 O   0  0  0  0  0  0  0  0  0  0  0  0
   -4.7493   -0.4913   -0.7448 C   0  0  0  0  0  0  0  0  0  0  0  0
   -3.8005   -1.6182   -1.1366 C   0  0  0  0  0  0  0  0  0  0  0  0
    0.0392    1.0700   -1.8029 N   0  0  0  0  0  0  0  0  0  0  0  0
    1.3672    1.2839   -1.7962 C   0  0  0  0  0  0  0  0  0  0  0  0
    1.7597    2.6125   -1.9792 N   0  0  0  0  0  0  0  0  0  0  0  0
    4.3649    2.0261    2.3528 H   0  0  0  0  0  0  0  0  0  0  0  0
    3.9148    2.4563    0.6665 H   0  0  0  0  0  0  0  0  0  0  0  0
    2.6858    2.4213    1.9427 H   0  0  0  0  0  0  0  0  0  0  0  0
    5.0263   -0.7056    2.7771 H   0  0  0  0  0  0  0  0  0  0  0  0
    7.0128   -1.9460    1.9139 H   0  0  0  0  0  0  0  0  0  0  0  0
    2.3482   -1.8279   -1.0527 H   0  0  0  0  0  0  0  0  0  0  0  0
   -2.1750    0.5963   -1.5569 H   0  0  0  0  0  0  0  0  0  0  0  0
   -1.8088   -2.2929   -0.8380 H   0  0  0  0  0  0  0  0  0  0  0  0
   -1.2874   -0.6547    1.0680 H   0  0  0  0  0  0  0  0  0  0  0  0
   -2.5556   -1.8332    1.3786 H   0  0  0  0  0  0  0  0  0  0  0  0
   -3.2225    0.3538    2.1846 H   0  0  0  0  0  0  0  0  0  0  0  0
   -2.9955    1.0931    0.5913 H   0  0  0  0  0  0  0  0  0  0  0  0
   -6.0289   -0.6633    3.1778 H   0  0  0  0  0  0  0  0  0  0  0  0
   -4.9724    0.7596    3.5021 H   0  0  0  0  0  0  0  0  0  0  0  0
   -6.7442    0.9404    3.4982 H   0  0  0  0  0  0  0  0  0  0  0  0
   -5.7649   -0.8024   -1.0106 H   0  0  0  0  0  0  0  0  0  0  0  0
   -4.5193    0.4269   -1.2971 H   0  0  0  0  0  0  0  0  0  0  0  0
   -3.8542   -1.7824   -2.2196 H   0  0  0  0  0  0  0  0  0  0  0  0
   -4.1408   -2.5455   -0.6569 H   0  0  0  0  0  0  0  0  0  0  0  0
    2.5702    2.6747   -2.5984 H   0  0  0  0  0  0  0  0  0  0  0  0
    0.9625    3.1532   -2.3000 H   0  0  0  0  0  0  0  0  0  0  0  0
  1  2  1  0
  2  3  1  0
  3  4  1  0
  4  5  2  0
  5  6  1  0
  6  7  1  0
  6  8  2  0
  8  9  1  0
  8 10  1  0
 10 11  1  0
 11 12  2  0
 11 13  1  0
 13 14  2  0
 14 15  1  0
 15 16  2  0
 16 17  1  0
 17 18  1  0
 18 19  1  0
 19 20  1  0
 20 21  1  0
 21 22  1  0
 22 23  1  0
 22 24  2  0
 22 25  2  0
 21 26  1  0
 26 27  1  0
 16 28  1  0
 28 29  2  0
 29 30  1  0
 10  3  2  0
 29 13  1  0
 27 18  1  0
  1 31  1  0
  1 32  1  0
  1 33  1  0
  4 34  1  0
  5 35  1  0
 14 36  1  0
 17 37  1  0
 18 38  1  0
 19 39  1  0
 19 40  1  0
 20 41  1  0
 20 42  1  0
 23 43  1  0
 23 44  1  0
 23 45  1  0
 26 46  1  0
 26 47  1  0
 27 48  1  0
 27 49  1  0
 30 50  1  0
 30 51  1  0
M  END
$$$$
