
     RDKit          3D

 42 45  0  0  0  0  0  0  0  0999 V2000
    4.0397   -2.3906   -1.2234 O   0  0  0  0  0  0  0  0  0  0  0  0
    4.1494   -1.2723   -0.3436 C   0  0  0  0  0  0  0  0  0  0  0  0
    2.9808   -1.3072    0.6374 C   0  0  0  0  0  0  0  0  0  0  0  0
    1.6383   -1.0582   -0.0551 C   0  0  0  0  0  0  0  0  0  0  0  0
    1.6268    0.2343   -0.8862 C   0  0  0  0  0  0  0  0  0  0  0  0
    1.6970    1.4062   -0.0154 N   0  0  0  0  0  0  0  0  0  0  0  0
    0.4910    1.9417    0.4115 C   0  0  0  0  0  0  0  0  0  0  0  0
    0.4919    3.2590    0.6010 N   0  0  0  0  0  0  0  0  0  0  0  0
   -0.6609    3.7892    1.0305 C   0  0  0  0  0  0  0  0  0  0  0  0
   -0.6122    5.4911    1.2575 Cl  0  0  0  0  0  0  0  0  0  0  0  0
   -1.8098    3.0895    1.2769 C   0  0  0  0  0  0  0  0  0  0  0  0
   -1.7152    1.7408    1.0457 C   0  0  0  0  0  0  0  0  0  0  0  0
   -2.8453    0.8394    1.2559 C   0  0  0  0  0  0  0  0  0  0  0  0
   -3.9104    1.1117    2.1035 C   0  0  0  0  0  0  0  0  0  0  0  0
   -4.7749    0.0464    2.0668 N   0  0  0  0  0  0  0  0  0  0  0  0
   -4.2968   -0.9110    1.2201 C   0  0  0  0  0  0  0  0  0  0  0  0
   -4.9214   -2.0766    0.9711 N   0  0  0  0  0  0  0  0  0  0  0  0
   -4.2427   -2.8602    0.1026 C   0  0  0  0  0  0  0  0  0  0  0  0
   -3.0330   -2.5430   -0.4994 C   0  0  0  0  0  0  0  0  0  0  0  0
   -2.4347   -1.3172   -0.2065 C   0  0  0  0  0  0  0  0  0  0  0  0
   -3.0901   -0.4591    0.6960 C   0  0  0  0  0  0  0  0  0  0  0  0
   -0.5788    1.1638    0.6057 N   0  0  0  0  0  0  0  0  0  0  0  0
    2.8180    0.2600   -1.8602 C   0  0  0  0  0  0  0  0  0  0  0  0
    4.1605    0.0146   -1.1653 C   0  0  0  0  0  0  0  0  0  0  0  0
    4.8488   -2.4157   -1.7627 H   0  0  0  0  0  0  0  0  0  0  0  0
    5.0913   -1.3769    0.2061 H   0  0  0  0  0  0  0  0  0  0  0  0
    3.1355   -0.5547    1.4198 H   0  0  0  0  0  0  0  0  0  0  0  0
    2.9399   -2.2860    1.1302 H   0  0  0  0  0  0  0  0  0  0  0  0
    0.8485   -1.0476    0.7041 H   0  0  0  0  0  0  0  0  0  0  0  0
    1.4161   -1.9045   -0.7178 H   0  0  0  0  0  0  0  0  0  0  0  0
    0.7135    0.2679   -1.4953 H   0  0  0  0  0  0  0  0  0  0  0  0
    2.2268    2.1952   -0.3723 H   0  0  0  0  0  0  0  0  0  0  0  0
   -2.7125    3.5758    1.6131 H   0  0  0  0  0  0  0  0  0  0  0  0
   -4.1309    1.9562    2.7425 H   0  0  0  0  0  0  0  0  0  0  0  0
   -5.6370   -0.0499    2.5830 H   0  0  0  0  0  0  0  0  0  0  0  0
   -4.7233   -3.8118   -0.1133 H   0  0  0  0  0  0  0  0  0  0  0  0
   -2.5601   -3.2379   -1.1846 H   0  0  0  0  0  0  0  0  0  0  0  0
   -1.4892   -1.0378   -0.6580 H   0  0  0  0  0  0  0  0  0  0  0  0
    2.6658   -0.5104   -2.6269 H   0  0  0  0  0  0  0  0  0  0  0  0
    2.8563    1.2209   -2.3883 H   0  0  0  0  0  0  0  0  0  0  0  0
    4.4005    0.8635   -0.5143 H   0  0  0  0  0  0  0  0  0  0  0  0
    4.9430   -0.0384   -1.9316 H   0  0  0  0  0  0  0  0  0  0  0  0
  1  2  1  0
  2  3  1  0
  3  4  1  0
  4  5  1  0
  5  6  1  0
  6  7  1  0
  7  8  2  0
  8  9  1  0
  9 10  1  0
  9 11  2  0
 11 12  1  0
 12 13  1  0
 13 14  2  0
 14 15  1  0
 15 16  1  0
 16 17  1  0
 17 18  2  0
 18 19  1  0
 19 20  2  0
 20 21  1  0
 12 22  2  0
  5 23  1  0
 23 24  1  0
 24  2  1  0
 22  7  1  0
 21 13  1  0
 21 16  2  0
  1 25  1  0
  2 26  1  0
  3 27  1  0
  3 28  1  0
  4 29  1  0
  4 30  1  0
  5 31  1  0
  6 32  1  0
 11 33  1  0
 14 34  1  0
 15 35  1  0
 18 36  1  0
 19 37  1  0
 20 38  1  0
 23 39  1  0
 23 40  1  0
 24 41  1  0
 24 42  1  0
M  END
$$$$
