
     RDKit          3D

 43 46  0  0  0  0  0  0  0  0999 V2000
   -4.8729    0.4889    1.7018 N   0  0  0  0  0  0  0  0  0  0  0  0
   -4.9890    0.2796    0.2581 C   0  0  0  0  0  0  0  0  0  0  0  0
   -4.0408    1.2260   -0.4873 C   0  0  0  0  0  0  0  0  0  0  0  0
   -2.5663    0.8804   -0.2693 C   0  0  0  0  0  0  0  0  0  0  0  0
   -2.2698   -0.5833   -0.6304 C   0  0  0  0  0  0  0  0  0  0  0  0
   -0.8958   -0.9362   -0.2976 N   0  0  0  0  0  0  0  0  0  0  0  0
    0.1057   -0.4152   -1.0977 C   0  0  0  0  0  0  0  0  0  0  0  0
   -0.1079   -0.1882   -2.4002 N   0  0  0  0  0  0  0  0  0  0  0  0
    0.9191    0.3093   -3.1084 C   0  0  0  0  0  0  0  0  0  0  0  0
    2.1447    0.5970   -2.5650 C   0  0  0  0  0  0  0  0  0  0  0  0
    2.2712    0.3394   -1.2179 C   0  0  0  0  0  0  0  0  0  0  0  0
    3.5158    0.5939   -0.4980 C   0  0  0  0  0  0  0  0  0  0  0  0
    4.4582    1.5389   -0.8785 C   0  0  0  0  0  0  0  0  0  0  0  0
    5.4845    1.5142    0.0322 N   0  0  0  0  0  0  0  0  0  0  0  0
    5.2306    0.5799    0.9943 C   0  0  0  0  0  0  0  0  0  0  0  0
    6.0525    0.3176    2.0273 N   0  0  0  0  0  0  0  0  0  0  0  0
    5.5745   -0.6493    2.8439 C   0  0  0  0  0  0  0  0  0  0  0  0
    4.3757   -1.3300    2.6800 C   0  0  0  0  0  0  0  0  0  0  0  0
    3.5652   -1.0162    1.5887 C   0  0  0  0  0  0  0  0  0  0  0  0
    4.0074   -0.0152    0.7040 C   0  0  0  0  0  0  0  0  0  0  0  0
    1.2634   -0.1668   -0.4782 N   0  0  0  0  0  0  0  0  0  0  0  0
   -3.2043   -1.5356    0.1324 C   0  0  0  0  0  0  0  0  0  0  0  0
   -4.6754   -1.1805   -0.0885 C   0  0  0  0  0  0  0  0  0  0  0  0
   -5.1301    1.4483    1.9323 H   0  0  0  0  0  0  0  0  0  0  0  0
   -5.5378   -0.1099    2.1908 H   0  0  0  0  0  0  0  0  0  0  0  0
   -6.0209    0.5028   -0.0368 H   0  0  0  0  0  0  0  0  0  0  0  0
   -4.2212    2.2651   -0.1851 H   0  0  0  0  0  0  0  0  0  0  0  0
   -4.2610    1.1751   -1.5616 H   0  0  0  0  0  0  0  0  0  0  0  0
   -2.2882    1.0754    0.7745 H   0  0  0  0  0  0  0  0  0  0  0  0
   -1.9521    1.5544   -0.8786 H   0  0  0  0  0  0  0  0  0  0  0  0
   -2.4576   -0.7373   -1.7017 H   0  0  0  0  0  0  0  0  0  0  0  0
   -0.6221   -0.7620    0.6634 H   0  0  0  0  0  0  0  0  0  0  0  0
    0.7187    0.4718   -4.1630 H   0  0  0  0  0  0  0  0  0  0  0  0
    2.9490    0.9855   -3.1721 H   0  0  0  0  0  0  0  0  0  0  0  0
    4.4893    2.2373   -1.7038 H   0  0  0  0  0  0  0  0  0  0  0  0
    6.3122    2.0918    0.0247 H   0  0  0  0  0  0  0  0  0  0  0  0
    6.2185   -0.8812    3.6892 H   0  0  0  0  0  0  0  0  0  0  0  0
    4.0741   -2.0933    3.3887 H   0  0  0  0  0  0  0  0  0  0  0  0
    2.6215   -1.5277    1.4272 H   0  0  0  0  0  0  0  0  0  0  0  0
   -2.9735   -1.5143    1.2056 H   0  0  0  0  0  0  0  0  0  0  0  0
   -3.0286   -2.5678   -0.1960 H   0  0  0  0  0  0  0  0  0  0  0  0
   -5.3077   -1.8582    0.4985 H   0  0  0  0  0  0  0  0  0  0  0  0
   -4.9288   -1.3577   -1.1418 H   0  0  0  0  0  0  0  0  0  0  0  0
  1  2  1  0
  2  3  1  0
  3  4  1  0
  4  5  1  0
  5  6  1  0
  6  7  1  0
  7  8  2  0
  8  9  1  0
  9 10  2  0
 10 11  1  0
 11 12  1  0
 12 13  2  0
 13 14  1  0
 14 15  1  0
 15 16  1  0
 16 17  2  0
 17 18  1  0
 18 19  2  0
 19 20  1  0
 11 21  2  0
  5 22  1  0
 22 23  1  0
 23  2  1  0
 21  7  1  0
 20 12  1  0
 20 15  2  0
  1 24  1  0
  1 25  1  0
  2 26  1  0
  3 27  1  0
  3 28  1  0
  4 29  1  0
  4 30  1  0
  5 31  1  0
  6 32  1  0
  9 33  1  0
 10 34  1  0
 13 35  1  0
 14 36  1  0
 17 37  1  0
 18 38  1  0
 19 39  1  0
 22 40  1  0
 22 41  1  0
 23 42  1  0
 23 43  1  0
M  END
$$$$
