
     RDKit          3D

 49 52  0  0  0  0  0  0  0  0999 V2000
   -5.7791    3.6584   -0.9403 C   0  0  0  0  0  0  0  0  0  0  0  0
   -5.8902    2.4413   -0.1001 C   0  0  0  0  0  0  0  0  0  0  0  0
   -6.9241    2.2924    0.7383 N   0  0  0  0  0  0  0  0  0  0  0  0
   -6.6950    1.1043    1.3223 N   0  0  0  0  0  0  0  0  0  0  0  0
   -5.5522    0.4811    0.8995 C   0  0  0  0  0  0  0  0  0  0  0  0
   -4.9713   -0.7365    1.2572 C   0  0  0  0  0  0  0  0  0  0  0  0
   -3.7720   -1.0805    0.6185 C   0  0  0  0  0  0  0  0  0  0  0  0
   -3.1670   -0.2503   -0.3419 C   0  0  0  0  0  0  0  0  0  0  0  0
   -1.9089   -0.6467   -0.9921 C   0  0  0  0  0  0  0  0  0  0  0  0
   -1.7699   -0.6652   -2.3799 C   0  0  0  0  0  0  0  0  0  0  0  0
   -0.6392   -1.0167   -3.0382 N   0  0  0  0  0  0  0  0  0  0  0  0
    0.4196   -1.3757   -2.2750 C   0  0  0  0  0  0  0  0  0  0  0  0
    0.4043   -1.3983   -0.8877 C   0  0  0  0  0  0  0  0  0  0  0  0
    1.4290   -1.7471   -0.0572 O   0  0  0  0  0  0  0  0  0  0  0  0
    2.6801   -2.0718   -0.6739 C   0  0  0  0  0  0  0  0  0  0  0  0
    3.7380   -2.3435    0.4224 C   0  0  0  0  0  0  0  0  0  0  0  0
    3.3641   -3.5273    1.2255 N   0  0  0  0  0  0  0  0  0  0  0  0
    3.9333   -1.1433    1.3755 C   0  0  0  0  0  0  0  0  0  0  0  0
    4.4606    0.0935    0.6848 C   0  0  0  0  0  0  0  0  0  0  0  0
    3.6032    1.1624    0.3865 C   0  0  0  0  0  0  0  0  0  0  0  0
    4.0854    2.2968   -0.2690 C   0  0  0  0  0  0  0  0  0  0  0  0
    5.4296    2.3752   -0.6319 C   0  0  0  0  0  0  0  0  0  0  0  0
    6.2870    1.3177   -0.3366 C   0  0  0  0  0  0  0  0  0  0  0  0
    7.9455    1.4118   -0.7863 Cl  0  0  0  0  0  0  0  0  0  0  0  0
    5.8111    0.1810    0.3172 C   0  0  0  0  0  0  0  0  0  0  0  0
   -0.7813   -1.0280   -0.2512 C   0  0  0  0  0  0  0  0  0  0  0  0
   -3.7907    0.9711   -0.6702 C   0  0  0  0  0  0  0  0  0  0  0  0
   -4.9967    1.3373   -0.0413 C   0  0  0  0  0  0  0  0  0  0  0  0
   -6.7446    4.1656   -1.0394 H   0  0  0  0  0  0  0  0  0  0  0  0
   -5.0669    4.3610   -0.4954 H   0  0  0  0  0  0  0  0  0  0  0  0
   -5.4308    3.4043   -1.9468 H   0  0  0  0  0  0  0  0  0  0  0  0
   -7.3615    0.7724    2.0095 H   0  0  0  0  0  0  0  0  0  0  0  0
   -5.4222   -1.3941    1.9930 H   0  0  0  0  0  0  0  0  0  0  0  0
   -3.3101   -2.0332    0.8768 H   0  0  0  0  0  0  0  0  0  0  0  0
   -2.5995   -0.3970   -3.0302 H   0  0  0  0  0  0  0  0  0  0  0  0
    1.2951   -1.6502   -2.8531 H   0  0  0  0  0  0  0  0  0  0  0  0
    3.0173   -1.2469   -1.3125 H   0  0  0  0  0  0  0  0  0  0  0  0
    2.5620   -2.9706   -1.2928 H   0  0  0  0  0  0  0  0  0  0  0  0
    4.6895   -2.5727   -0.0724 H   0  0  0  0  0  0  0  0  0  0  0  0
    2.4374   -3.3601    1.6255 H   0  0  0  0  0  0  0  0  0  0  0  0
    3.2457   -4.3319    0.6099 H   0  0  0  0  0  0  0  0  0  0  0  0
    2.9961   -0.9050    1.8959 H   0  0  0  0  0  0  0  0  0  0  0  0
    4.6447   -1.4130    2.1686 H   0  0  0  0  0  0  0  0  0  0  0  0
    2.5502    1.1157    0.6604 H   0  0  0  0  0  0  0  0  0  0  0  0
    3.4121    3.1198   -0.4962 H   0  0  0  0  0  0  0  0  0  0  0  0
    5.8009    3.2603   -1.1411 H   0  0  0  0  0  0  0  0  0  0  0  0
    6.4924   -0.6359    0.5446 H   0  0  0  0  0  0  0  0  0  0  0  0
   -0.8174   -1.0260    0.8360 H   0  0  0  0  0  0  0  0  0  0  0  0
   -3.3435    1.6436   -1.3977 H   0  0  0  0  0  0  0  0  0  0  0  0
  1  2  1  0
  2  3  2  0
  3  4  1  0
  4  5  1  0
  5  6  2  0
  6  7  1  0
  7  8  2  0
  8  9  1  0
  9 10  2  0
 10 11  1  0
 11 12  2  0
 12 13  1  0
 13 14  1  0
 14 15  1  0
 15 16  1  0
 16 17  1  0
 16 18  1  0
 18 19  1  0
 19 20  2  0
 20 21  1  0
 21 22  2  0
 22 23  1  0
 23 24  1  0
 23 25  2  0
 13 26  2  0
  8 27  1  0
 27 28  2  0
 28  2  1  0
 28  5  1  0
 26  9  1  0
 25 19  1  0
  1 29  1  0
  1 30  1  0
  1 31  1  0
  4 32  1  0
  6 33  1  0
  7 34  1  0
 10 35  1  0
 12 36  1  0
 15 37  1  0
 15 38  1  0
 16 39  1  0
 17 40  1  0
 17 41  1  0
 18 42  1  0
 18 43  1  0
 20 44  1  0
 21 45  1  0
 22 46  1  0
 25 47  1  0
 26 48  1  0
 27 49  1  0
M  END
$$$$
