
     RDKit          3D

 49 52  0  0  0  0  0  0  0  0999 V2000
    7.5071   -0.7323   -0.4811 C   0  0  0  0  0  0  0  0  0  0  0  0
    6.7720    0.2960    0.2944 C   0  0  0  0  0  0  0  0  0  0  0  0
    7.4321    1.1310    1.1075 N   0  0  0  0  0  0  0  0  0  0  0  0
    6.4640    1.9040    1.6277 N   0  0  0  0  0  0  0  0  0  0  0  0
    5.2050    1.6045    1.1823 C   0  0  0  0  0  0  0  0  0  0  0  0
    3.9588    2.1604    1.4758 C   0  0  0  0  0  0  0  0  0  0  0  0
    2.8466    1.6034    0.8300 C   0  0  0  0  0  0  0  0  0  0  0  0
    2.9611    0.5343   -0.0766 C   0  0  0  0  0  0  0  0  0  0  0  0
    1.7701   -0.0230   -0.7352 C   0  0  0  0  0  0  0  0  0  0  0  0
    1.6938   -0.1708   -2.1201 C   0  0  0  0  0  0  0  0  0  0  0  0
    0.6290   -0.6799   -2.7852 N   0  0  0  0  0  0  0  0  0  0  0  0
   -0.4293   -1.0621   -2.0322 C   0  0  0  0  0  0  0  0  0  0  0  0
   -0.4744   -0.9620   -0.6490 C   0  0  0  0  0  0  0  0  0  0  0  0
   -1.5009   -1.3279    0.1717 O   0  0  0  0  0  0  0  0  0  0  0  0
   -2.6886   -1.8227   -0.4576 C   0  0  0  0  0  0  0  0  0  0  0  0
   -3.7679   -2.0878    0.6194 C   0  0  1  0  0  0  0  0  0  0  0  0
   -3.3233   -3.1454    1.5534 N   0  0  0  0  0  0  0  0  0  0  0  0
   -4.1199   -0.8240    1.4354 C   0  0  0  0  0  0  0  0  0  0  0  0
   -4.7291    0.2778    0.5994 C   0  0  0  0  0  0  0  0  0  0  0  0
   -3.9611    1.3848    0.2127 C   0  0  0  0  0  0  0  0  0  0  0  0
   -4.5184    2.3901   -0.5784 C   0  0  0  0  0  0  0  0  0  0  0  0
   -5.8474    2.2998   -0.9881 C   0  0  0  0  0  0  0  0  0  0  0  0
   -6.6205    1.2045   -0.6072 C   0  0  0  0  0  0  0  0  0  0  0  0
   -6.0647    0.1971    0.1825 C   0  0  0  0  0  0  0  0  0  0  0  0
    0.6465   -0.4357   -0.0053 C   0  0  0  0  0  0  0  0  0  0  0  0
    4.2413    0.0053   -0.3414 C   0  0  0  0  0  0  0  0  0  0  0  0
    5.3731    0.5484    0.2973 C   0  0  0  0  0  0  0  0  0  0  0  0
    7.0353   -1.7133   -0.3628 H   0  0  0  0  0  0  0  0  0  0  0  0
    8.5476   -0.8179   -0.1507 H   0  0  0  0  0  0  0  0  0  0  0  0
    7.5077   -0.4754   -1.5455 H   0  0  0  0  0  0  0  0  0  0  0  0
    6.7303    2.6251    2.2877 H   0  0  0  0  0  0  0  0  0  0  0  0
    3.8474    2.9877    2.1689 H   0  0  0  0  0  0  0  0  0  0  0  0
    1.8663    2.0316    1.0388 H   0  0  0  0  0  0  0  0  0  0  0  0
    2.5157    0.1366   -2.7630 H   0  0  0  0  0  0  0  0  0  0  0  0
   -1.2521   -1.4618   -2.6148 H   0  0  0  0  0  0  0  0  0  0  0  0
   -3.0673   -1.0968   -1.1867 H   0  0  0  0  0  0  0  0  0  0  0  0
   -2.4621   -2.7609   -0.9806 H   0  0  0  0  0  0  0  0  0  0  0  0
   -4.6690   -2.4568    0.1146 H   0  0  0  0  0  0  0  0  0  0  0  0
   -2.4387   -2.8458    1.9715 H   0  0  0  0  0  0  0  0  0  0  0  0
   -3.0941   -3.9881    1.0265 H   0  0  0  0  0  0  0  0  0  0  0  0
   -4.8385   -1.0822    2.2258 H   0  0  0  0  0  0  0  0  0  0  0  0
   -3.2346   -0.4428    1.9617 H   0  0  0  0  0  0  0  0  0  0  0  0
   -2.9210    1.4679    0.5217 H   0  0  0  0  0  0  0  0  0  0  0  0
   -3.9153    3.2445   -0.8745 H   0  0  0  0  0  0  0  0  0  0  0  0
   -6.2812    3.0844   -1.6022 H   0  0  0  0  0  0  0  0  0  0  0  0
   -7.6581    1.1361   -0.9234 H   0  0  0  0  0  0  0  0  0  0  0  0
   -6.6812   -0.6503    0.4753 H   0  0  0  0  0  0  0  0  0  0  0  0
    0.6429   -0.3592    1.0799 H   0  0  0  0  0  0  0  0  0  0  0  0
    4.3651   -0.8304   -1.0254 H   0  0  0  0  0  0  0  0  0  0  0  0
  1  2  1  0
  2  3  2  0
  3  4  1  0
  4  5  1  0
  5  6  2  0
  6  7  1  0
  7  8  2  0
  8  9  1  0
  9 10  2  0
 10 11  1  0
 11 12  2  0
 12 13  1  0
 13 14  1  0
 14 15  1  0
 15 16  1  0
 16 17  1  0
 16 18  1  0
 18 19  1  0
 19 20  2  0
 20 21  1  0
 21 22  2  0
 22 23  1  0
 23 24  2  0
 13 25  2  0
  8 26  1  0
 26 27  2  0
 27  2  1  0
 27  5  1  0
 25  9  1  0
 24 19  1  0
  1 28  1  0
  1 29  1  0
  1 30  1  0
  4 31  1  0
  6 32  1  0
  7 33  1  0
 10 34  1  0
 12 35  1  0
 15 36  1  0
 15 37  1  0
 16 38  1  6
 17 39  1  0
 17 40  1  0
 18 41  1  0
 18 42  1  0
 20 43  1  0
 21 44  1  0
 22 45  1  0
 23 46  1  0
 24 47  1  0
 25 48  1  0
 26 49  1  0
M  END
$$$$
