
     RDKit          3D

 43 46  0  0  0  0  0  0  0  0999 V2000
   -3.3040    1.9755    0.4605 N   0  0  0  0  0  0  0  0  0  0  0  0
   -3.3391    0.5213    0.7233 C   0  0  0  0  0  0  0  0  0  0  0  0
   -4.7696   -0.0043    0.5562 C   0  0  0  0  0  0  0  0  0  0  0  0
   -5.2366    0.0013   -0.8988 C   0  0  0  0  0  0  0  0  0  0  0  0
   -4.2628   -0.7472   -1.8035 C   0  0  0  0  0  0  0  0  0  0  0  0
   -2.8376   -0.2170   -1.6694 C   0  0  0  0  0  0  0  0  0  0  0  0
   -2.3517   -0.2479   -0.2078 C   0  0  0  0  0  0  0  0  0  0  0  0
   -1.0155    0.3603   -0.1459 N   0  0  0  0  0  0  0  0  0  0  0  0
   -0.1572   -0.1626    0.8098 C   0  0  0  0  0  0  0  0  0  0  0  0
   -0.6263   -0.6180    1.9779 N   0  0  0  0  0  0  0  0  0  0  0  0
    0.2754   -1.0970    2.8514 C   0  0  0  0  0  0  0  0  0  0  0  0
    1.6221   -1.1466    2.5986 C   0  0  0  0  0  0  0  0  0  0  0  0
    2.0125   -0.6643    1.3690 C   0  0  0  0  0  0  0  0  0  0  0  0
    3.4123   -0.6511    0.9550 C   0  0  0  0  0  0  0  0  0  0  0  0
    4.3747   -1.5305    1.4309 C   0  0  0  0  0  0  0  0  0  0  0  0
    5.5664   -1.2382    0.8160 N   0  0  0  0  0  0  0  0  0  0  0  0
    5.4005   -0.1942   -0.0477 C   0  0  0  0  0  0  0  0  0  0  0  0
    6.3873    0.3272   -0.7995 N   0  0  0  0  0  0  0  0  0  0  0  0
    5.9685    1.3536   -1.5748 C   0  0  0  0  0  0  0  0  0  0  0  0
    4.6751    1.8553   -1.6266 C   0  0  0  0  0  0  0  0  0  0  0  0
    3.6933    1.2750   -0.8229 C   0  0  0  0  0  0  0  0  0  0  0  0
    4.0677    0.1999    0.0044 C   0  0  0  0  0  0  0  0  0  0  0  0
    1.1348   -0.1703    0.4717 N   0  0  0  0  0  0  0  0  0  0  0  0
   -3.6598    2.4659    1.2788 H   0  0  0  0  0  0  0  0  0  0  0  0
   -2.3114    2.2241    0.3935 H   0  0  0  0  0  0  0  0  0  0  0  0
   -3.0361    0.3762    1.7665 H   0  0  0  0  0  0  0  0  0  0  0  0
   -4.8147   -1.0322    0.9389 H   0  0  0  0  0  0  0  0  0  0  0  0
   -5.4667    0.5827    1.1669 H   0  0  0  0  0  0  0  0  0  0  0  0
   -5.3460    1.0336   -1.2522 H   0  0  0  0  0  0  0  0  0  0  0  0
   -6.2279   -0.4613   -0.9662 H   0  0  0  0  0  0  0  0  0  0  0  0
   -4.2784   -1.8147   -1.5510 H   0  0  0  0  0  0  0  0  0  0  0  0
   -4.5902   -0.6624   -2.8458 H   0  0  0  0  0  0  0  0  0  0  0  0
   -2.7884    0.8044   -2.0688 H   0  0  0  0  0  0  0  0  0  0  0  0
   -2.1678   -0.8215   -2.2939 H   0  0  0  0  0  0  0  0  0  0  0  0
   -2.3149   -1.3032    0.0987 H   0  0  0  0  0  0  0  0  0  0  0  0
   -0.4912    0.3413   -1.0146 H   0  0  0  0  0  0  0  0  0  0  0  0
   -0.1334   -1.4488    3.7938 H   0  0  0  0  0  0  0  0  0  0  0  0
    2.3162   -1.5288    3.3327 H   0  0  0  0  0  0  0  0  0  0  0  0
    4.3220   -2.3465    2.1387 H   0  0  0  0  0  0  0  0  0  0  0  0
    6.4483   -1.7094    0.9535 H   0  0  0  0  0  0  0  0  0  0  0  0
    6.7463    1.7939   -2.1947 H   0  0  0  0  0  0  0  0  0  0  0  0
    4.4321    2.6851   -2.2811 H   0  0  0  0  0  0  0  0  0  0  0  0
    2.6717    1.6415   -0.8358 H   0  0  0  0  0  0  0  0  0  0  0  0
  1  2  1  0
  2  3  1  0
  3  4  1  0
  4  5  1  0
  5  6  1  0
  6  7  1  0
  7  8  1  0
  8  9  1  0
  9 10  2  0
 10 11  1  0
 11 12  2  0
 12 13  1  0
 13 14  1  0
 14 15  2  0
 15 16  1  0
 16 17  1  0
 17 18  1  0
 18 19  2  0
 19 20  1  0
 20 21  2  0
 21 22  1  0
 13 23  2  0
  7  2  1  0
 23  9  1  0
 22 14  1  0
 22 17  2  0
  1 24  1  0
  1 25  1  0
  2 26  1  0
  3 27  1  0
  3 28  1  0
  4 29  1  0
  4 30  1  0
  5 31  1  0
  5 32  1  0
  6 33  1  0
  6 34  1  0
  7 35  1  0
  8 36  1  0
 11 37  1  0
 12 38  1  0
 15 39  1  0
 16 40  1  0
 19 41  1  0
 20 42  1  0
 21 43  1  0
M  END
$$$$
