
     RDKit          3D

 36 39  0  0  0  0  0  0  0  0999 V2000
    4.0711    2.7577    0.6594 N   0  0  0  0  0  0  0  0  0  0  0  0
    4.5128    1.5209    0.3824 C   0  0  0  0  0  0  0  0  0  0  0  0
    5.8042    1.2158    0.3041 N   0  0  0  0  0  0  0  0  0  0  0  0
    5.8050   -0.0974    0.0223 N   0  0  0  0  0  0  0  0  0  0  0  0
    4.5579   -0.6547   -0.0726 C   0  0  0  0  0  0  0  0  0  0  0  0
    4.1401   -1.9629   -0.3300 C   0  0  0  0  0  0  0  0  0  0  0  0
    2.7592   -2.1928   -0.3596 C   0  0  0  0  0  0  0  0  0  0  0  0
    1.8378   -1.1568   -0.1534 C   0  0  0  0  0  0  0  0  0  0  0  0
    0.4218   -1.4545   -0.1900 C   0  0  0  0  0  0  0  0  0  0  0  0
   -0.1403   -2.4271    0.5977 N   0  0  0  0  0  0  0  0  0  0  0  0
   -1.4383   -2.4743    0.3357 N   0  0  0  0  0  0  0  0  0  0  0  0
   -1.6978   -1.5421   -0.6058 N   0  0  0  0  0  0  0  0  0  0  0  0
   -3.0560   -1.3924   -1.0996 C   0  0  0  0  0  0  0  0  0  0  0  0
   -3.7382   -0.1694   -0.5357 C   0  0  0  0  0  0  0  0  0  0  0  0
   -3.9151   -0.0183    0.8488 C   0  0  0  0  0  0  0  0  0  0  0  0
   -4.5552    1.1098    1.3639 C   0  0  0  0  0  0  0  0  0  0  0  0
   -5.0327    2.0954    0.5033 C   0  0  0  0  0  0  0  0  0  0  0  0
   -4.8742    1.9528   -0.8735 C   0  0  0  0  0  0  0  0  0  0  0  0
   -4.2346    0.8254   -1.3918 C   0  0  0  0  0  0  0  0  0  0  0  0
   -0.5520   -0.8993   -0.9950 C   0  0  0  0  0  0  0  0  0  0  0  0
   -0.3439    0.5284   -2.4890 I   0  0  0  0  0  0  0  0  0  0  0  0
    2.2906    0.1446    0.1220 C   0  0  0  0  0  0  0  0  0  0  0  0
    3.6764    0.3956    0.1567 C   0  0  0  0  0  0  0  0  0  0  0  0
    4.7721    3.3922    1.0267 H   0  0  0  0  0  0  0  0  0  0  0  0
    3.1652    2.8734    1.0960 H   0  0  0  0  0  0  0  0  0  0  0  0
    6.6983   -0.5618   -0.0900 H   0  0  0  0  0  0  0  0  0  0  0  0
    4.8456   -2.7702   -0.4967 H   0  0  0  0  0  0  0  0  0  0  0  0
    2.4001   -3.2039   -0.5499 H   0  0  0  0  0  0  0  0  0  0  0  0
   -3.0058   -1.3651   -2.1936 H   0  0  0  0  0  0  0  0  0  0  0  0
   -3.6241   -2.2901   -0.8273 H   0  0  0  0  0  0  0  0  0  0  0  0
   -3.5522   -0.7789    1.5395 H   0  0  0  0  0  0  0  0  0  0  0  0
   -4.6815    1.2181    2.4384 H   0  0  0  0  0  0  0  0  0  0  0  0
   -5.5309    2.9736    0.9058 H   0  0  0  0  0  0  0  0  0  0  0  0
   -5.2508    2.7208   -1.5445 H   0  0  0  0  0  0  0  0  0  0  0  0
   -4.1264    0.7349   -2.4707 H   0  0  0  0  0  0  0  0  0  0  0  0
    1.5917    0.9530    0.3122 H   0  0  0  0  0  0  0  0  0  0  0  0
  1  2  1  0
  2  3  2  0
  3  4  1  0
  4  5  1  0
  5  6  2  0
  6  7  1  0
  7  8  2  0
  8  9  1  0
  9 10  1  0
 10 11  2  0
 11 12  1  0
 12 13  1  0
 13 14  1  0
 14 15  2  0
 15 16  1  0
 16 17  2  0
 17 18  1  0
 18 19  2  0
 12 20  1  0
 20 21  1  0
  8 22  1  0
 22 23  2  0
 23  2  1  0
 23  5  1  0
 20  9  2  0
 19 14  1  0
  1 24  1  0
  1 25  1  0
  4 26  1  0
  6 27  1  0
  7 28  1  0
 13 29  1  0
 13 30  1  0
 15 31  1  0
 16 32  1  0
 17 33  1  0
 18 34  1  0
 19 35  1  0
 22 36  1  0
M  END
$$$$
