BACE1_verubecestat__alternate_457_seed3301_ex32__pose01


 31 33  0  0  0  0  0  0  0  0999 V2000
   24.0540   12.6100   20.7620 C   0  0  0  0  0  0  0  0  0  0  0  0
   23.5290   12.3350   22.0230 C   0  0  0  0  0  0  0  0  0  0  0  0
   22.6950   11.2650   22.2570 C   0  0  0  0  0  0  0  0  0  0  0  0
   22.3260   10.4210   21.2160 C   0  0  0  0  0  0  0  0  0  0  0  0
   22.8410   10.6770   19.9580 C   0  0  0  0  0  0  0  0  0  0  0  0
   23.7020   11.7350   19.7450 C   0  0  0  0  0  0  0  0  0  0  0  0
   24.2160   11.9470   18.5070 F   0  0  0  0  0  0  0  0  0  0  0  0
   27.7980   12.6780   23.6130 C   0  0  0  0  0  0  0  0  0  0  0  0
   26.9190   13.1440   22.5220 N   0  0  0  0  0  0  0  0  0  0  0  0
   26.0240   14.2280   22.6650 C   0  0  0  0  0  0  0  0  0  0  0  0
   26.1520   14.9010   23.8500 N   0  0  0  0  0  0  0  0  0  0  0  0
   25.1690   14.5820   21.7560 N   0  0  0  0  0  0  0  0  0  0  0  0
   24.9760   13.7980   20.5370 C   0  0  0  0  0  0  0  0  0  0  0  0
   24.2830   14.7900   19.5980 C   0  0  0  0  0  0  0  0  0  0  0  0
   26.3140   13.4630   19.9170 C   0  0  0  0  0  0  0  0  0  0  0  0
   27.2620   12.4220   20.9980 S   0  0  0  0  0  0  0  0  0  0  0  0
   28.6600   12.6830   20.7030 O   0  0  0  0  0  0  0  0  0  0  0  0
   26.6940   11.1150   21.1030 O   0  0  0  0  0  0  0  0  0  0  0  0
   25.5710   15.6730   24.0420 H   0  0  0  0  0  0  0  0  0  0  0  0
   26.8250   14.6150   24.5090 H   0  0  0  0  0  0  0  0  0  0  0  0
   22.2350   11.1020   23.5700 N   0  0  0  0  0  0  0  0  0  0  0  0
   22.9320   11.2840   24.7510 C   0  0  0  0  0  0  0  0  0  0  0  0
   24.1340   11.4990   24.8340 O   0  0  0  0  0  0  0  0  0  0  0  0
   21.2950   10.8240   23.6640 H   0  0  0  0  0  0  0  0  0  0  0  0
   22.1090   11.2400   25.9840 C   0  0  0  0  0  0  0  0  0  0  0  0
   20.9060   10.5570   25.9890 C   0  0  0  0  0  0  0  0  0  0  0  0
   20.1780   10.5500   27.1660 C   0  0  0  0  0  0  0  0  0  0  0  0
   20.6650   11.2080   28.2790 C   0  0  0  0  0  0  0  0  0  0  0  0
   19.9900   11.2370   29.4410 F   0  0  0  0  0  0  0  0  0  0  0  0
   21.8700   11.8650   28.1750 C   0  0  0  0  0  0  0  0  0  0  0  0
   22.5950   11.8940   27.0450 N   0  0  0  0  0  0  0  0  0  0  0  0
  8  9  1  0
  9 10  1  0
 10 11  1  0
 10 12  2  0
 12 13  1  0
 13 14  1  0
 13  1  1  0
  1  2  2  0
  2  3  1  0
  3 21  1  0
 21 22  1  0
 22 23  2  0
 22 25  1  0
 25 26  2  0
 26 27  1  0
 27 28  2  0
 28 29  1  0
 28 30  1  0
 30 31  2  0
  3  4  2  0
  4  5  1  0
  5  6  2  0
  6  7  1  0
 13 15  1  0
 15 16  1  0
 16 17  2  0
 16 18  2  0
 16  9  1  0
  6  1  1  0
 31 25  1  0
 11 19  1  0
 11 20  1  0
 21 24  1  0
M  END
> <meeko>
{"is_sidechain": false}

> <source_group>
BACE1-457

> <source_system>
BACE1_verubecestat

> <source_run>
alternate_457_seed3301_ex32

> <source_seed>
3301

> <vina_pose_rank>
1

> <vina_affinity_kcal_mol>
-8.2970000000000006

> <vina_rmsd_to_crystal_angstrom>
7.0038

> <minimizedAffinity>
-8.29980

> <CNNscore>
0.0396491028

> <CNNaffinity>
4.0954470634

> <CNN_VS>
0.1623807997

> <CNNaffinity_variance>
1.3979920149

$$$$
BACE1_verubecestat__alternate_457_seed3301_ex32__pose02


 31 33  0  0  0  0  0  0  0  0999 V2000
   25.4050   13.3570   20.6580 C   0  0  0  0  0  0  0  0  0  0  0  0
   24.8110   12.7720   21.7750 C   0  0  0  0  0  0  0  0  0  0  0  0
   23.4800   12.4230   21.8040 C   0  0  0  0  0  0  0  0  0  0  0  0
   22.6650   12.6670   20.7060 C   0  0  0  0  0  0  0  0  0  0  0  0
   23.2380   13.2430   19.5860 C   0  0  0  0  0  0  0  0  0  0  0  0
   24.5820   13.5590   19.5600 C   0  0  0  0  0  0  0  0  0  0  0  0
   25.1270   14.0970   18.4380 F   0  0  0  0  0  0  0  0  0  0  0  0
   28.2960    9.6590   20.9990 C   0  0  0  0  0  0  0  0  0  0  0  0
   27.9310   11.0820   20.8550 N   0  0  0  0  0  0  0  0  0  0  0  0
   27.9920   12.0050   21.9230 C   0  0  0  0  0  0  0  0  0  0  0  0
   28.5620   11.5010   23.0600 N   0  0  0  0  0  0  0  0  0  0  0  0
   27.5720   13.2300   21.8430 N   0  0  0  0  0  0  0  0  0  0  0  0
   26.8790   13.7280   20.6560 C   0  0  0  0  0  0  0  0  0  0  0  0
   27.0060   15.2480   20.7970 C   0  0  0  0  0  0  0  0  0  0  0  0
   27.6380   13.3350   19.4080 C   0  0  0  0  0  0  0  0  0  0  0  0
   27.6710   11.5700   19.2240 S   0  0  0  0  0  0  0  0  0  0  0  0
   28.8780   11.2530   18.4830 O   0  0  0  0  0  0  0  0  0  0  0  0
   26.3770   11.0480   18.9130 O   0  0  0  0  0  0  0  0  0  0  0  0
   28.6500   12.0680   23.8600 H   0  0  0  0  0  0  0  0  0  0  0  0
   28.8860   10.5710   23.0790 H   0  0  0  0  0  0  0  0  0  0  0  0
   23.0080   11.8460   22.9900 N   0  0  0  0  0  0  0  0  0  0  0  0
   22.5080   12.4820   24.1130 C   0  0  0  0  0  0  0  0  0  0  0  0
   22.5180   13.6920   24.3000 O   0  0  0  0  0  0  0  0  0  0  0  0
   23.0350   10.8630   23.0300 H   0  0  0  0  0  0  0  0  0  0  0  0
   21.8900   11.5890   25.1240 C   0  0  0  0  0  0  0  0  0  0  0  0
   21.8600   10.2220   24.9110 C   0  0  0  0  0  0  0  0  0  0  0  0
   21.2700    9.4370   25.8860 C   0  0  0  0  0  0  0  0  0  0  0  0
   20.7440   10.0270   27.0190 C   0  0  0  0  0  0  0  0  0  0  0  0
   20.1530    9.3060   27.9880 F   0  0  0  0  0  0  0  0  0  0  0  0
   20.8170   11.3960   27.1370 C   0  0  0  0  0  0  0  0  0  0  0  0
   21.3780   12.1840   26.2060 N   0  0  0  0  0  0  0  0  0  0  0  0
  8  9  1  0
  9 10  1  0
 10 11  1  0
 10 12  2  0
 12 13  1  0
 13 14  1  0
 13  1  1  0
  1  2  2  0
  2  3  1  0
  3 21  1  0
 21 22  1  0
 22 23  2  0
 22 25  1  0
 25 26  2  0
 26 27  1  0
 27 28  2  0
 28 29  1  0
 28 30  1  0
 30 31  2  0
  3  4  2  0
  4  5  1  0
  5  6  2  0
  6  7  1  0
 13 15  1  0
 15 16  1  0
 16 17  2  0
 16 18  2  0
 16  9  1  0
  6  1  1  0
 31 25  1  0
 11 19  1  0
 11 20  1  0
 21 24  1  0
M  END
> <meeko>
{"is_sidechain": false}

> <source_group>
BACE1-457

> <source_system>
BACE1_verubecestat

> <source_run>
alternate_457_seed3301_ex32

> <source_seed>
3301

> <vina_pose_rank>
2

> <vina_affinity_kcal_mol>
-8.0239999999999991

> <vina_rmsd_to_crystal_angstrom>
7.2957000000000001

> <minimizedAffinity>
-7.85879

> <CNNscore>
0.0449772812

> <CNNaffinity>
4.4680042267

> <CNN_VS>
0.2009586841

> <CNNaffinity_variance>
0.8282637596

$$$$
BACE1_verubecestat__alternate_457_seed3301_ex32__pose03


 31 33  0  0  0  0  0  0  0  0999 V2000
   22.5930    8.8220   16.7230 C   0  0  0  0  0  0  0  0  0  0  0  0
   23.8120    8.2970   16.2960 C   0  0  0  0  0  0  0  0  0  0  0  0
   24.9870    9.0110   16.3680 C   0  0  0  0  0  0  0  0  0  0  0  0
   24.9910   10.3100   16.8590 C   0  0  0  0  0  0  0  0  0  0  0  0
   23.7910   10.8460   17.2910 C   0  0  0  0  0  0  0  0  0  0  0  0
   22.6260   10.1070   17.2420 C   0  0  0  0  0  0  0  0  0  0  0  0
   21.4670   10.6460   17.7000 F   0  0  0  0  0  0  0  0  0  0  0  0
   22.7090    4.8220   19.2000 C   0  0  0  0  0  0  0  0  0  0  0  0
   22.1170    5.8600   18.3340 N   0  0  0  0  0  0  0  0  0  0  0  0
   21.9750    5.7090   16.9370 C   0  0  0  0  0  0  0  0  0  0  0  0
   22.2930    4.4580   16.4790 N   0  0  0  0  0  0  0  0  0  0  0  0
   21.5580    6.6500   16.1480 N   0  0  0  0  0  0  0  0  0  0  0  0
   21.3120    8.0070   16.6330 C   0  0  0  0  0  0  0  0  0  0  0  0
   20.4210    8.6060   15.5410 C   0  0  0  0  0  0  0  0  0  0  0  0
   20.4900    7.9640   17.9020 C   0  0  0  0  0  0  0  0  0  0  0  0
   21.3870    7.1550   19.2030 S   0  0  0  0  0  0  0  0  0  0  0  0
   20.3960    6.5730   20.0900 O   0  0  0  0  0  0  0  0  0  0  0  0
   22.4980    7.9400   19.6440 O   0  0  0  0  0  0  0  0  0  0  0  0
   22.2260    4.2550   15.5180 H   0  0  0  0  0  0  0  0  0  0  0  0
   22.5890    3.7630   17.1100 H   0  0  0  0  0  0  0  0  0  0  0  0
   26.1410    8.3680   15.9020 N   0  0  0  0  0  0  0  0  0  0  0  0
   27.3300    8.1470   16.5750 C   0  0  0  0  0  0  0  0  0  0  0  0
   27.6130    8.6060   17.6740 O   0  0  0  0  0  0  0  0  0  0  0  0
   26.1010    8.0300   14.9780 H   0  0  0  0  0  0  0  0  0  0  0  0
   28.2900    7.2510   15.8860 C   0  0  0  0  0  0  0  0  0  0  0  0
   27.8990    5.9790   15.5060 C   0  0  0  0  0  0  0  0  0  0  0  0
   28.8360    5.1860   14.8680 C   0  0  0  0  0  0  0  0  0  0  0  0
   30.1050    5.6760   14.6310 C   0  0  0  0  0  0  0  0  0  0  0  0
   31.0510    4.9380   14.0240 F   0  0  0  0  0  0  0  0  0  0  0  0
   30.4020    6.9520   15.0520 C   0  0  0  0  0  0  0  0  0  0  0  0
   29.5160    7.7440   15.6780 N   0  0  0  0  0  0  0  0  0  0  0  0
  8  9  1  0
  9 10  1  0
 10 11  1  0
 10 12  2  0
 12 13  1  0
 13 14  1  0
 13  1  1  0
  1  2  2  0
  2  3  1  0
  3 21  1  0
 21 22  1  0
 22 23  2  0
 22 25  1  0
 25 26  2  0
 26 27  1  0
 27 28  2  0
 28 29  1  0
 28 30  1  0
 30 31  2  0
  3  4  2  0
  4  5  1  0
  5  6  2  0
  6  7  1  0
 13 15  1  0
 15 16  1  0
 16 17  2  0
 16 18  2  0
 16  9  1  0
  6  1  1  0
 31 25  1  0
 11 19  1  0
 11 20  1  0
 21 24  1  0
M  END
> <meeko>
{"is_sidechain": false}

> <source_group>
BACE1-457

> <source_system>
BACE1_verubecestat

> <source_run>
alternate_457_seed3301_ex32

> <source_seed>
3301

> <vina_pose_rank>
3

> <vina_affinity_kcal_mol>
-7.9880000000000004

> <vina_rmsd_to_crystal_angstrom>
6.5049999999999999

> <minimizedAffinity>
-7.87611

> <CNNscore>
0.1447360814

> <CNNaffinity>
4.4408879280

> <CNN_VS>
0.6427567005

> <CNNaffinity_variance>
1.1633244753

$$$$
BACE1_verubecestat__alternate_457_seed3301_ex32__pose04


 31 33  0  0  0  0  0  0  0  0999 V2000
   26.3370   12.6460   21.8270 C   0  0  0  0  0  0  0  0  0  0  0  0
   25.4030   12.2180   22.7690 C   0  0  0  0  0  0  0  0  0  0  0  0
   25.3630   12.7240   24.0480 C   0  0  0  0  0  0  0  0  0  0  0  0
   26.2840   13.6810   24.4550 C   0  0  0  0  0  0  0  0  0  0  0  0
   27.2160   14.1200   23.5320 C   0  0  0  0  0  0  0  0  0  0  0  0
   27.2250   13.6270   22.2430 C   0  0  0  0  0  0  0  0  0  0  0  0
   28.1320   14.0960   21.3470 F   0  0  0  0  0  0  0  0  0  0  0  0
   22.2300   13.0400   19.5630 C   0  0  0  0  0  0  0  0  0  0  0  0
   23.6530   12.6840   19.7330 N   0  0  0  0  0  0  0  0  0  0  0  0
   24.0930   11.3630   19.9730 C   0  0  0  0  0  0  0  0  0  0  0  0
   23.1020   10.4220   19.8830 N   0  0  0  0  0  0  0  0  0  0  0  0
   25.3240   11.0490   20.2330 N   0  0  0  0  0  0  0  0  0  0  0  0
   26.3540   12.0690   20.4200 C   0  0  0  0  0  0  0  0  0  0  0  0
   27.6540   11.2840   20.2230 C   0  0  0  0  0  0  0  0  0  0  0  0
   26.2810   13.0910   19.3070 C   0  0  0  0  0  0  0  0  0  0  0  0
   24.7380   13.9670   19.3610 S   0  0  0  0  0  0  0  0  0  0  0  0
   24.4550   14.3900   18.0020 O   0  0  0  0  0  0  0  0  0  0  0  0
   24.6580   14.8240   20.5030 O   0  0  0  0  0  0  0  0  0  0  0  0
   23.3100    9.4720   20.0350 H   0  0  0  0  0  0  0  0  0  0  0  0
   22.1810   10.6960   19.6670 H   0  0  0  0  0  0  0  0  0  0  0  0
   24.3760   12.2070   24.8970 N   0  0  0  0  0  0  0  0  0  0  0  0
   23.0600   12.6130   25.0300 C   0  0  0  0  0  0  0  0  0  0  0  0
   22.5710   13.6020   24.5000 O   0  0  0  0  0  0  0  0  0  0  0  0
   24.6550   11.4580   25.4730 H   0  0  0  0  0  0  0  0  0  0  0  0
   22.2050   11.7290   25.8600 C   0  0  0  0  0  0  0  0  0  0  0  0
   21.5560   10.6530   25.2800 C   0  0  0  0  0  0  0  0  0  0  0  0
   20.7700    9.8640   26.1010 C   0  0  0  0  0  0  0  0  0  0  0  0
   20.6610   10.1630   27.4460 C   0  0  0  0  0  0  0  0  0  0  0  0
   19.9030    9.4310   28.2790 F   0  0  0  0  0  0  0  0  0  0  0  0
   21.3410   11.2580   27.9280 C   0  0  0  0  0  0  0  0  0  0  0  0
   22.1070   12.0470   27.1550 N   0  0  0  0  0  0  0  0  0  0  0  0
  8  9  1  0
  9 10  1  0
 10 11  1  0
 10 12  2  0
 12 13  1  0
 13 14  1  0
 13  1  1  0
  1  2  2  0
  2  3  1  0
  3 21  1  0
 21 22  1  0
 22 23  2  0
 22 25  1  0
 25 26  2  0
 26 27  1  0
 27 28  2  0
 28 29  1  0
 28 30  1  0
 30 31  2  0
  3  4  2  0
  4  5  1  0
  5  6  2  0
  6  7  1  0
 13 15  1  0
 15 16  1  0
 16 17  2  0
 16 18  2  0
 16  9  1  0
  6  1  1  0
 31 25  1  0
 11 19  1  0
 11 20  1  0
 21 24  1  0
M  END
> <meeko>
{"is_sidechain": false}

> <source_group>
BACE1-457

> <source_system>
BACE1_verubecestat

> <source_run>
alternate_457_seed3301_ex32

> <source_seed>
3301

> <vina_pose_rank>
4

> <vina_affinity_kcal_mol>
-7.9039999999999999

> <vina_rmsd_to_crystal_angstrom>
7.1273999999999997

> <minimizedAffinity>
-7.66416

> <CNNscore>
0.0381960347

> <CNNaffinity>
4.0688118935

> <CNN_VS>
0.1554124802

> <CNNaffinity_variance>
1.4539984465

$$$$
BACE1_verubecestat__alternate_457_seed3301_ex32__pose05


 31 33  0  0  0  0  0  0  0  0999 V2000
   23.6700   12.1290   20.1810 C   0  0  0  0  0  0  0  0  0  0  0  0
   23.2200   10.8470   19.8690 C   0  0  0  0  0  0  0  0  0  0  0  0
   22.6220   10.0290   20.8020 C   0  0  0  0  0  0  0  0  0  0  0  0
   22.4650   10.4570   22.1140 C   0  0  0  0  0  0  0  0  0  0  0  0
   22.9020   11.7280   22.4410 C   0  0  0  0  0  0  0  0  0  0  0  0
   23.4710   12.5490   21.4870 C   0  0  0  0  0  0  0  0  0  0  0  0
   23.8650   13.8040   21.8270 F   0  0  0  0  0  0  0  0  0  0  0  0
   21.0340   12.7640   16.3340 C   0  0  0  0  0  0  0  0  0  0  0  0
   22.2030   12.9410   17.2170 N   0  0  0  0  0  0  0  0  0  0  0  0
   23.4310   12.2730   17.0120 C   0  0  0  0  0  0  0  0  0  0  0  0
   23.4910   11.5680   15.8400 N   0  0  0  0  0  0  0  0  0  0  0  0
   24.4310   12.3320   17.8360 N   0  0  0  0  0  0  0  0  0  0  0  0
   24.3230   13.0100   19.1280 C   0  0  0  0  0  0  0  0  0  0  0  0
   25.7860   13.2420   19.5160 C   0  0  0  0  0  0  0  0  0  0  0  0
   23.6910   14.3720   18.9480 C   0  0  0  0  0  0  0  0  0  0  0  0
   22.0230   14.2160   18.3600 S   0  0  0  0  0  0  0  0  0  0  0  0
   21.7330   15.4260   17.6120 O   0  0  0  0  0  0  0  0  0  0  0  0
   21.1620   13.6620   19.3570 O   0  0  0  0  0  0  0  0  0  0  0  0
   24.3070   11.0680   15.6080 H   0  0  0  0  0  0  0  0  0  0  0  0
   22.7180   11.5600   15.2300 H   0  0  0  0  0  0  0  0  0  0  0  0
   22.2190    8.7630   20.3590 N   0  0  0  0  0  0  0  0  0  0  0  0
   21.4790    8.4440   19.2340 C   0  0  0  0  0  0  0  0  0  0  0  0
   20.9370    9.2540   18.4940 O   0  0  0  0  0  0  0  0  0  0  0  0
   22.4970    8.0030   20.9200 H   0  0  0  0  0  0  0  0  0  0  0  0
   21.3940    6.9960   18.9220 C   0  0  0  0  0  0  0  0  0  0  0  0
   22.5520    6.2530   18.7680 C   0  0  0  0  0  0  0  0  0  0  0  0
   22.4140    4.9080   18.4750 C   0  0  0  0  0  0  0  0  0  0  0  0
   21.1530    4.3570   18.3520 C   0  0  0  0  0  0  0  0  0  0  0  0
   20.9700    3.0580   18.0590 F   0  0  0  0  0  0  0  0  0  0  0  0
   20.0610    5.1780   18.5170 C   0  0  0  0  0  0  0  0  0  0  0  0
   20.1640    6.4880   18.7960 N   0  0  0  0  0  0  0  0  0  0  0  0
  8  9  1  0
  9 10  1  0
 10 11  1  0
 10 12  2  0
 12 13  1  0
 13 14  1  0
 13  1  1  0
  1  2  2  0
  2  3  1  0
  3 21  1  0
 21 22  1  0
 22 23  2  0
 22 25  1  0
 25 26  2  0
 26 27  1  0
 27 28  2  0
 28 29  1  0
 28 30  1  0
 30 31  2  0
  3  4  2  0
  4  5  1  0
  5  6  2  0
  6  7  1  0
 13 15  1  0
 15 16  1  0
 16 17  2  0
 16 18  2  0
 16  9  1  0
  6  1  1  0
 31 25  1  0
 11 19  1  0
 11 20  1  0
 21 24  1  0
M  END
> <meeko>
{"is_sidechain": false}

> <source_group>
BACE1-457

> <source_system>
BACE1_verubecestat

> <source_run>
alternate_457_seed3301_ex32

> <source_seed>
3301

> <vina_pose_rank>
5

> <vina_affinity_kcal_mol>
-7.6669999999999998

> <vina_rmsd_to_crystal_angstrom>
7.2622999999999998

> <minimizedAffinity>
-7.59883

> <CNNscore>
0.1850969195

> <CNNaffinity>
4.9960312843

> <CNN_VS>
0.9247500300

> <CNNaffinity_variance>
0.4562975168

$$$$
BACE1_verubecestat__alternate_457_seed3301_ex32__pose06


 31 33  0  0  0  0  0  0  0  0999 V2000
   24.8420   11.5220   20.9480 C   0  0  0  0  0  0  0  0  0  0  0  0
   24.3760   10.2530   20.6040 C   0  0  0  0  0  0  0  0  0  0  0  0
   23.1020    9.8300   20.9050 C   0  0  0  0  0  0  0  0  0  0  0  0
   22.2290   10.6630   21.5940 C   0  0  0  0  0  0  0  0  0  0  0  0
   22.6720   11.9260   21.9410 C   0  0  0  0  0  0  0  0  0  0  0  0
   23.9430   12.3490   21.6040 C   0  0  0  0  0  0  0  0  0  0  0  0
   24.3440   13.6050   21.9300 F   0  0  0  0  0  0  0  0  0  0  0  0
   25.9420   10.9480   16.4080 C   0  0  0  0  0  0  0  0  0  0  0  0
   26.1550   11.3550   17.8110 N   0  0  0  0  0  0  0  0  0  0  0  0
   26.9210   10.5980   18.7250 C   0  0  0  0  0  0  0  0  0  0  0  0
   27.5720    9.5350   18.1570 N   0  0  0  0  0  0  0  0  0  0  0  0
   27.0290   10.8830   19.9860 N   0  0  0  0  0  0  0  0  0  0  0  0
   26.2550   11.9610   20.5990 C   0  0  0  0  0  0  0  0  0  0  0  0
   27.0210   12.2390   21.8950 C   0  0  0  0  0  0  0  0  0  0  0  0
   26.3470   13.2110   19.7530 C   0  0  0  0  0  0  0  0  0  0  0  0
   25.6060   12.9480   18.1620 S   0  0  0  0  0  0  0  0  0  0  0  0
   26.2760   13.8470   17.2390 O   0  0  0  0  0  0  0  0  0  0  0  0
   24.1860   12.8070   18.2580 O   0  0  0  0  0  0  0  0  0  0  0  0
   28.1320    8.9470   18.7140 H   0  0  0  0  0  0  0  0  0  0  0  0
   27.4810    9.3600   17.1920 H   0  0  0  0  0  0  0  0  0  0  0  0
   22.7600    8.5320   20.5050 N   0  0  0  0  0  0  0  0  0  0  0  0
   21.8930    8.1440   19.4990 C   0  0  0  0  0  0  0  0  0  0  0  0
   21.1680    8.9000   18.8650 O   0  0  0  0  0  0  0  0  0  0  0  0
   23.1940    7.8010   21.0030 H   0  0  0  0  0  0  0  0  0  0  0  0
   21.9030    6.6970   19.1770 C   0  0  0  0  0  0  0  0  0  0  0  0
   22.7110    6.2210   18.1580 C   0  0  0  0  0  0  0  0  0  0  0  0
   22.6790    4.8620   17.8990 C   0  0  0  0  0  0  0  0  0  0  0  0
   21.8640    4.0370   18.6500 C   0  0  0  0  0  0  0  0  0  0  0  0
   21.7930    2.7140   18.4280 F   0  0  0  0  0  0  0  0  0  0  0  0
   21.0920    4.6050   19.6380 C   0  0  0  0  0  0  0  0  0  0  0  0
   21.0970    5.9210   19.9090 N   0  0  0  0  0  0  0  0  0  0  0  0
  8  9  1  0
  9 10  1  0
 10 11  1  0
 10 12  2  0
 12 13  1  0
 13 14  1  0
 13  1  1  0
  1  2  2  0
  2  3  1  0
  3 21  1  0
 21 22  1  0
 22 23  2  0
 22 25  1  0
 25 26  2  0
 26 27  1  0
 27 28  2  0
 28 29  1  0
 28 30  1  0
 30 31  2  0
  3  4  2  0
  4  5  1  0
  5  6  2  0
  6  7  1  0
 13 15  1  0
 15 16  1  0
 16 17  2  0
 16 18  2  0
 16  9  1  0
  6  1  1  0
 31 25  1  0
 11 19  1  0
 11 20  1  0
 21 24  1  0
M  END
> <meeko>
{"is_sidechain": false}

> <source_group>
BACE1-457

> <source_system>
BACE1_verubecestat

> <source_run>
alternate_457_seed3301_ex32

> <source_seed>
3301

> <vina_pose_rank>
6

> <vina_affinity_kcal_mol>
-7.4100000000000001

> <vina_rmsd_to_crystal_angstrom>
7.1612999999999998

> <minimizedAffinity>
-7.23743

> <CNNscore>
0.1026047170

> <CNNaffinity>
4.6171040535

> <CNN_VS>
0.4737366438

> <CNNaffinity_variance>
0.8559703827

$$$$
BACE1_verubecestat__alternate_457_seed3301_ex32__pose07


 31 33  0  0  0  0  0  0  0  0999 V2000
   23.0310   10.0810   18.8680 C   0  0  0  0  0  0  0  0  0  0  0  0
   22.6380   10.0660   20.2060 C   0  0  0  0  0  0  0  0  0  0  0  0
   23.5270   10.2710   21.2370 C   0  0  0  0  0  0  0  0  0  0  0  0
   24.8740   10.4810   20.9720 C   0  0  0  0  0  0  0  0  0  0  0  0
   25.2820   10.5020   19.6500 C   0  0  0  0  0  0  0  0  0  0  0  0
   24.3730   10.3270   18.6250 C   0  0  0  0  0  0  0  0  0  0  0  0
   24.7940   10.3820   17.3350 F   0  0  0  0  0  0  0  0  0  0  0  0
   23.0570    5.7010   17.1460 C   0  0  0  0  0  0  0  0  0  0  0  0
   22.6030    7.1000   17.2810 N   0  0  0  0  0  0  0  0  0  0  0  0
   22.9600    8.1170   16.3670 C   0  0  0  0  0  0  0  0  0  0  0  0
   23.6350    7.6620   15.2660 N   0  0  0  0  0  0  0  0  0  0  0  0
   22.6610    9.3690   16.5280 N   0  0  0  0  0  0  0  0  0  0  0  0
   22.0240    9.8550   17.7510 C   0  0  0  0  0  0  0  0  0  0  0  0
   21.4480   11.2080   17.3230 C   0  0  0  0  0  0  0  0  0  0  0  0
   20.8530    8.9700   18.1140 C   0  0  0  0  0  0  0  0  0  0  0  0
   21.4030    7.3260   18.4950 S   0  0  0  0  0  0  0  0  0  0  0  0
   20.3000    6.4360   18.1790 O   0  0  0  0  0  0  0  0  0  0  0  0
   22.1430    7.2870   19.7170 O   0  0  0  0  0  0  0  0  0  0  0  0
   23.9270    8.2960   14.5720 H   0  0  0  0  0  0  0  0  0  0  0  0
   23.8290    6.7020   15.1690 H   0  0  0  0  0  0  0  0  0  0  0  0
   23.0030   10.2280   22.5350 N   0  0  0  0  0  0  0  0  0  0  0  0
   22.7230   11.2860   23.3820 C   0  0  0  0  0  0  0  0  0  0  0  0
   23.0180   12.4540   23.1700 O   0  0  0  0  0  0  0  0  0  0  0  0
   22.8080    9.3300   22.8900 H   0  0  0  0  0  0  0  0  0  0  0  0
   21.9770   10.9310   24.6130 C   0  0  0  0  0  0  0  0  0  0  0  0
   21.5170   11.9290   25.4540 C   0  0  0  0  0  0  0  0  0  0  0  0
   20.8280   11.5410   26.5900 C   0  0  0  0  0  0  0  0  0  0  0  0
   20.6200   10.1990   26.8440 C   0  0  0  0  0  0  0  0  0  0  0  0
   19.9660    9.7750   27.9380 F   0  0  0  0  0  0  0  0  0  0  0  0
   21.1220    9.2800   25.9510 C   0  0  0  0  0  0  0  0  0  0  0  0
   21.7990    9.6260   24.8430 N   0  0  0  0  0  0  0  0  0  0  0  0
  8  9  1  0
  9 10  1  0
 10 11  1  0
 10 12  2  0
 12 13  1  0
 13 14  1  0
 13  1  1  0
  1  2  2  0
  2  3  1  0
  3 21  1  0
 21 22  1  0
 22 23  2  0
 22 25  1  0
 25 26  2  0
 26 27  1  0
 27 28  2  0
 28 29  1  0
 28 30  1  0
 30 31  2  0
  3  4  2  0
  4  5  1  0
  5  6  2  0
  6  7  1  0
 13 15  1  0
 15 16  1  0
 16 17  2  0
 16 18  2  0
 16  9  1  0
  6  1  1  0
 31 25  1  0
 11 19  1  0
 11 20  1  0
 21 24  1  0
M  END
> <meeko>
{"is_sidechain": false}

> <source_group>
BACE1-457

> <source_system>
BACE1_verubecestat

> <source_run>
alternate_457_seed3301_ex32

> <source_seed>
3301

> <vina_pose_rank>
7

> <vina_affinity_kcal_mol>
-7.2930000000000001

> <vina_rmsd_to_crystal_angstrom>
7.0075000000000003

> <minimizedAffinity>
-7.71120

> <CNNscore>
0.1384889781

> <CNNaffinity>
4.7458319664

> <CNN_VS>
0.6572453976

> <CNNaffinity_variance>
0.8526714444

$$$$
BACE1_verubecestat__alternate_457_seed3301_ex32__pose08


 31 33  0  0  0  0  0  0  0  0999 V2000
   24.1330    6.8270   14.9000 C   0  0  0  0  0  0  0  0  0  0  0  0
   23.9230    7.7980   15.8780 C   0  0  0  0  0  0  0  0  0  0  0  0
   23.3510    7.5060   17.0950 C   0  0  0  0  0  0  0  0  0  0  0  0
   22.9370    6.2120   17.3850 C   0  0  0  0  0  0  0  0  0  0  0  0
   23.1400    5.2340   16.4270 C   0  0  0  0  0  0  0  0  0  0  0  0
   23.7440    5.5360   15.2220 C   0  0  0  0  0  0  0  0  0  0  0  0
   23.9580    4.5530   14.3110 F   0  0  0  0  0  0  0  0  0  0  0  0
   28.5690    8.3560   15.2600 C   0  0  0  0  0  0  0  0  0  0  0  0
   27.3270    7.9570   14.5680 N   0  0  0  0  0  0  0  0  0  0  0  0
   26.4010    8.8900   14.0500 C   0  0  0  0  0  0  0  0  0  0  0  0
   26.8280   10.1890   14.1110 N   0  0  0  0  0  0  0  0  0  0  0  0
   25.2560    8.5600   13.5380 N   0  0  0  0  0  0  0  0  0  0  0  0
   24.7700    7.1820   13.5650 C   0  0  0  0  0  0  0  0  0  0  0  0
   23.6860    7.1790   12.4830 C   0  0  0  0  0  0  0  0  0  0  0  0
   25.8580    6.2380   13.1040 C   0  0  0  0  0  0  0  0  0  0  0  0
   27.2340    6.2730   14.2260 S   0  0  0  0  0  0  0  0  0  0  0  0
   28.4110    5.9260   13.4480 O   0  0  0  0  0  0  0  0  0  0  0  0
   26.9020    5.6850   15.4860 O   0  0  0  0  0  0  0  0  0  0  0  0
   26.2520   10.9130   13.7740 H   0  0  0  0  0  0  0  0  0  0  0  0
   27.7120   10.4000   14.4900 H   0  0  0  0  0  0  0  0  0  0  0  0
   23.1950    8.5740   17.9880 N   0  0  0  0  0  0  0  0  0  0  0  0
   22.0420    8.9960   18.6260 C   0  0  0  0  0  0  0  0  0  0  0  0
   20.9170    8.5670   18.4040 O   0  0  0  0  0  0  0  0  0  0  0  0
   24.0100    9.0890   18.1880 H   0  0  0  0  0  0  0  0  0  0  0  0
   22.2400   10.0250   19.6750 C   0  0  0  0  0  0  0  0  0  0  0  0
   22.2860    9.6530   21.0080 C   0  0  0  0  0  0  0  0  0  0  0  0
   22.4700   10.6540   21.9450 C   0  0  0  0  0  0  0  0  0  0  0  0
   22.6040   11.9660   21.5330 C   0  0  0  0  0  0  0  0  0  0  0  0
   22.7750   12.9720   22.4080 F   0  0  0  0  0  0  0  0  0  0  0  0
   22.5380   12.2380   20.1860 C   0  0  0  0  0  0  0  0  0  0  0  0
   22.3550   11.2890   19.2530 N   0  0  0  0  0  0  0  0  0  0  0  0
  8  9  1  0
  9 10  1  0
 10 11  1  0
 10 12  2  0
 12 13  1  0
 13 14  1  0
 13  1  1  0
  1  2  2  0
  2  3  1  0
  3 21  1  0
 21 22  1  0
 22 23  2  0
 22 25  1  0
 25 26  2  0
 26 27  1  0
 27 28  2  0
 28 29  1  0
 28 30  1  0
 30 31  2  0
  3  4  2  0
  4  5  1  0
  5  6  2  0
  6  7  1  0
 13 15  1  0
 15 16  1  0
 16 17  2  0
 16 18  2  0
 16  9  1  0
  6  1  1  0
 31 25  1  0
 11 19  1  0
 11 20  1  0
 21 24  1  0
M  END
> <meeko>
{"is_sidechain": false}

> <source_group>
BACE1-457

> <source_system>
BACE1_verubecestat

> <source_run>
alternate_457_seed3301_ex32

> <source_seed>
3301

> <vina_pose_rank>
8

> <vina_affinity_kcal_mol>
-7.2569999999999997

> <vina_rmsd_to_crystal_angstrom>
9.0574999999999992

> <minimizedAffinity>
-7.22401

> <CNNscore>
0.1367171407

> <CNNaffinity>
4.8305125237

> <CNN_VS>
0.6604138613

> <CNNaffinity_variance>
0.3945812285

$$$$
BACE1_verubecestat__alternate_457_seed3301_ex32__pose09


 31 33  0  0  0  0  0  0  0  0999 V2000
   21.6080    8.2000   17.2040 C   0  0  0  0  0  0  0  0  0  0  0  0
   21.8300    8.8250   18.4300 C   0  0  0  0  0  0  0  0  0  0  0  0
   22.0980    8.1160   19.5800 C   0  0  0  0  0  0  0  0  0  0  0  0
   22.1340    6.7280   19.5580 C   0  0  0  0  0  0  0  0  0  0  0  0
   21.9190    6.0910   18.3490 C   0  0  0  0  0  0  0  0  0  0  0  0
   21.6840    6.8150   17.1970 C   0  0  0  0  0  0  0  0  0  0  0  0
   21.5050    6.1670   16.0180 F   0  0  0  0  0  0  0  0  0  0  0  0
   24.6790   11.6840   16.4430 C   0  0  0  0  0  0  0  0  0  0  0  0
   23.5190   10.8170   16.1580 N   0  0  0  0  0  0  0  0  0  0  0  0
   22.1830   11.2190   16.3840 C   0  0  0  0  0  0  0  0  0  0  0  0
   22.0520   12.5330   16.7440 N   0  0  0  0  0  0  0  0  0  0  0  0
   21.1600   10.4340   16.2430 N   0  0  0  0  0  0  0  0  0  0  0  0
   21.3180    9.0110   15.9510 C   0  0  0  0  0  0  0  0  0  0  0  0
   19.9390    8.6150   15.4140 C   0  0  0  0  0  0  0  0  0  0  0  0
   22.3050    8.8190   14.8210 C   0  0  0  0  0  0  0  0  0  0  0  0
   23.9200    9.3820   15.2960 S   0  0  0  0  0  0  0  0  0  0  0  0
   24.5920    9.7880   14.0750 O   0  0  0  0  0  0  0  0  0  0  0  0
   24.5020    8.5360   16.2910 O   0  0  0  0  0  0  0  0  0  0  0  0
   21.1600   12.9080   16.9230 H   0  0  0  0  0  0  0  0  0  0  0  0
   22.8510   13.1040   16.8240 H   0  0  0  0  0  0  0  0  0  0  0  0
   22.2990    8.8660   20.7460 N   0  0  0  0  0  0  0  0  0  0  0  0
   23.2620    9.8290   20.9910 C   0  0  0  0  0  0  0  0  0  0  0  0
   24.1970   10.0940   20.2470 O   0  0  0  0  0  0  0  0  0  0  0  0
   21.6750    8.6840   21.4860 H   0  0  0  0  0  0  0  0  0  0  0  0
   23.0850   10.5960   22.2480 C   0  0  0  0  0  0  0  0  0  0  0  0
   22.7220   11.9300   22.1980 C   0  0  0  0  0  0  0  0  0  0  0  0
   22.5730   12.5980   23.4000 C   0  0  0  0  0  0  0  0  0  0  0  0
   22.7830   11.9280   24.5900 C   0  0  0  0  0  0  0  0  0  0  0  0
   22.6600   12.5370   25.7820 F   0  0  0  0  0  0  0  0  0  0  0  0
   23.1480   10.6020   24.5370 C   0  0  0  0  0  0  0  0  0  0  0  0
   23.3060    9.9290   23.3860 N   0  0  0  0  0  0  0  0  0  0  0  0
  8  9  1  0
  9 10  1  0
 10 11  1  0
 10 12  2  0
 12 13  1  0
 13 14  1  0
 13  1  1  0
  1  2  2  0
  2  3  1  0
  3 21  1  0
 21 22  1  0
 22 23  2  0
 22 25  1  0
 25 26  2  0
 26 27  1  0
 27 28  2  0
 28 29  1  0
 28 30  1  0
 30 31  2  0
  3  4  2  0
  4  5  1  0
  5  6  2  0
  6  7  1  0
 13 15  1  0
 15 16  1  0
 16 17  2  0
 16 18  2  0
 16  9  1  0
  6  1  1  0
 31 25  1  0
 11 19  1  0
 11 20  1  0
 21 24  1  0
M  END
> <meeko>
{"is_sidechain": false}

> <source_group>
BACE1-457

> <source_system>
BACE1_verubecestat

> <source_run>
alternate_457_seed3301_ex32

> <source_seed>
3301

> <vina_pose_rank>
9

> <vina_affinity_kcal_mol>
-7.2469999999999999

> <vina_rmsd_to_crystal_angstrom>
6.9546000000000001

> <minimizedAffinity>
-7.17119

> <CNNscore>
0.1263259202

> <CNNaffinity>
5.0258350372

> <CNN_VS>
0.6348932385

> <CNNaffinity_variance>
0.3506314754

$$$$
BACE1_verubecestat__alternate_457_seed3301_ex32__pose10


 31 33  0  0  0  0  0  0  0  0999 V2000
   25.5480   14.2520   22.5180 C   0  0  0  0  0  0  0  0  0  0  0  0
   24.5140   13.7530   23.3100 C   0  0  0  0  0  0  0  0  0  0  0  0
   24.6430   13.5870   24.6700 C   0  0  0  0  0  0  0  0  0  0  0  0
   25.8380   13.8980   25.3070 C   0  0  0  0  0  0  0  0  0  0  0  0
   26.8740   14.3970   24.5370 C   0  0  0  0  0  0  0  0  0  0  0  0
   26.7200   14.5880   23.1780 C   0  0  0  0  0  0  0  0  0  0  0  0
   27.7420   15.1080   22.4510 F   0  0  0  0  0  0  0  0  0  0  0  0
   27.1810   10.6370   19.9840 C   0  0  0  0  0  0  0  0  0  0  0  0
   26.5230   11.9380   20.2180 N   0  0  0  0  0  0  0  0  0  0  0  0
   27.1670   13.1770   20.0000 C   0  0  0  0  0  0  0  0  0  0  0  0
   28.3980   13.0670   19.4100 N   0  0  0  0  0  0  0  0  0  0  0  0
   26.6450   14.3250   20.3020 N   0  0  0  0  0  0  0  0  0  0  0  0
   25.3740   14.4260   21.0180 C   0  0  0  0  0  0  0  0  0  0  0  0
   24.9340   15.8650   20.7350 C   0  0  0  0  0  0  0  0  0  0  0  0
   24.3460   13.5160   20.3820 C   0  0  0  0  0  0  0  0  0  0  0  0
   24.8350   11.8160   20.5330 S   0  0  0  0  0  0  0  0  0  0  0  0
   24.2390   11.1130   19.4110 O   0  0  0  0  0  0  0  0  0  0  0  0
   24.7710   11.3670   21.8880 O   0  0  0  0  0  0  0  0  0  0  0  0
   28.9250   13.8750   19.2170 H   0  0  0  0  0  0  0  0  0  0  0  0
   28.7550   12.1790   19.1780 H   0  0  0  0  0  0  0  0  0  0  0  0
   23.5300   13.0740   25.3480 N   0  0  0  0  0  0  0  0  0  0  0  0
   23.1270   11.7550   25.4600 C   0  0  0  0  0  0  0  0  0  0  0  0
   23.6260   10.8130   24.8580 O   0  0  0  0  0  0  0  0  0  0  0  0
   22.9610   13.7370   25.8040 H   0  0  0  0  0  0  0  0  0  0  0  0
   22.0240   11.5090   26.4210 C   0  0  0  0  0  0  0  0  0  0  0  0
   20.8250   10.9800   25.9760 C   0  0  0  0  0  0  0  0  0  0  0  0
   19.8300   10.7730   26.9150 C   0  0  0  0  0  0  0  0  0  0  0  0
   20.0590   11.0890   28.2400 C   0  0  0  0  0  0  0  0  0  0  0  0
   19.1200   10.9130   29.1860 F   0  0  0  0  0  0  0  0  0  0  0  0
   21.2830   11.6150   28.5850 C   0  0  0  0  0  0  0  0  0  0  0  0
   22.2650   11.8330   27.6950 N   0  0  0  0  0  0  0  0  0  0  0  0
  8  9  1  0
  9 10  1  0
 10 11  1  0
 10 12  2  0
 12 13  1  0
 13 14  1  0
 13  1  1  0
  1  2  2  0
  2  3  1  0
  3 21  1  0
 21 22  1  0
 22 23  2  0
 22 25  1  0
 25 26  2  0
 26 27  1  0
 27 28  2  0
 28 29  1  0
 28 30  1  0
 30 31  2  0
  3  4  2  0
  4  5  1  0
  5  6  2  0
  6  7  1  0
 13 15  1  0
 15 16  1  0
 16 17  2  0
 16 18  2  0
 16  9  1  0
  6  1  1  0
 31 25  1  0
 11 19  1  0
 11 20  1  0
 21 24  1  0
M  END
> <meeko>
{"is_sidechain": false}

> <source_group>
BACE1-457

> <source_system>
BACE1_verubecestat

> <source_run>
alternate_457_seed3301_ex32

> <source_seed>
3301

> <vina_pose_rank>
10

> <vina_affinity_kcal_mol>
-7.1589999999999998

> <vina_rmsd_to_crystal_angstrom>
7.8006000000000002

> <minimizedAffinity>
-7.59603

> <CNNscore>
0.0337842591

> <CNNaffinity>
3.5293114185

> <CNN_VS>
0.1192351729

> <CNNaffinity_variance>
1.9821754694

$$$$
BACE1_verubecestat__alternate_457_seed3301_ex32__pose11


 31 33  0  0  0  0  0  0  0  0999 V2000
   22.7030    9.1250   17.4800 C   0  0  0  0  0  0  0  0  0  0  0  0
   22.6500    9.5480   18.8070 C   0  0  0  0  0  0  0  0  0  0  0  0
   23.7280   10.1240   19.4410 C   0  0  0  0  0  0  0  0  0  0  0  0
   24.9340   10.2830   18.7710 C   0  0  0  0  0  0  0  0  0  0  0  0
   25.0050    9.8720   17.4520 C   0  0  0  0  0  0  0  0  0  0  0  0
   23.9060    9.3260   16.8190 C   0  0  0  0  0  0  0  0  0  0  0  0
   23.9930    8.9570   15.5150 F   0  0  0  0  0  0  0  0  0  0  0  0
   22.6800    4.4210   17.6300 C   0  0  0  0  0  0  0  0  0  0  0  0
   22.1620    5.7670   17.3160 N   0  0  0  0  0  0  0  0  0  0  0  0
   22.2280    6.3360   16.0250 C   0  0  0  0  0  0  0  0  0  0  0  0
   22.6750    5.4730   15.0600 N   0  0  0  0  0  0  0  0  0  0  0  0
   21.8780    7.5560   15.7550 N   0  0  0  0  0  0  0  0  0  0  0  0
   21.4940    8.4950   16.8070 C   0  0  0  0  0  0  0  0  0  0  0  0
   20.7360    9.5810   16.0370 C   0  0  0  0  0  0  0  0  0  0  0  0
   20.5030    7.8460   17.7470 C   0  0  0  0  0  0  0  0  0  0  0  0
   21.2480    6.4740   18.5930 S   0  0  0  0  0  0  0  0  0  0  0  0
   20.1730    5.5530   18.9140 O   0  0  0  0  0  0  0  0  0  0  0  0
   22.2410    6.9070   19.5260 O   0  0  0  0  0  0  0  0  0  0  0  0
   22.7560    5.7770   14.1280 H   0  0  0  0  0  0  0  0  0  0  0  0
   22.9150    4.5490   15.2990 H   0  0  0  0  0  0  0  0  0  0  0  0
   23.5420   10.5020   20.7760 N   0  0  0  0  0  0  0  0  0  0  0  0
   22.8550   11.5980   21.2690 C   0  0  0  0  0  0  0  0  0  0  0  0
   22.3960   12.5060   20.5880 O   0  0  0  0  0  0  0  0  0  0  0  0
   23.9510    9.9130   21.4510 H   0  0  0  0  0  0  0  0  0  0  0  0
   22.6560   11.6120   22.7390 C   0  0  0  0  0  0  0  0  0  0  0  0
   22.5650   10.4190   23.4350 C   0  0  0  0  0  0  0  0  0  0  0  0
   22.3760   10.4910   24.8040 C   0  0  0  0  0  0  0  0  0  0  0  0
   22.2900   11.7230   25.4230 C   0  0  0  0  0  0  0  0  0  0  0  0
   22.0980   11.8420   26.7480 F   0  0  0  0  0  0  0  0  0  0  0  0
   22.3860   12.8530   24.6440 C   0  0  0  0  0  0  0  0  0  0  0  0
   22.5630   12.8160   23.3130 N   0  0  0  0  0  0  0  0  0  0  0  0
  8  9  1  0
  9 10  1  0
 10 11  1  0
 10 12  2  0
 12 13  1  0
 13 14  1  0
 13  1  1  0
  1  2  2  0
  2  3  1  0
  3 21  1  0
 21 22  1  0
 22 23  2  0
 22 25  1  0
 25 26  2  0
 26 27  1  0
 27 28  2  0
 28 29  1  0
 28 30  1  0
 30 31  2  0
  3  4  2  0
  4  5  1  0
  5  6  2  0
  6  7  1  0
 13 15  1  0
 15 16  1  0
 16 17  2  0
 16 18  2  0
 16  9  1  0
  6  1  1  0
 31 25  1  0
 11 19  1  0
 11 20  1  0
 21 24  1  0
M  END
> <meeko>
{"is_sidechain": false}

> <source_group>
BACE1-457

> <source_system>
BACE1_verubecestat

> <source_run>
alternate_457_seed3301_ex32

> <source_seed>
3301

> <vina_pose_rank>
11

> <vina_affinity_kcal_mol>
-7.1479999999999997

> <vina_rmsd_to_crystal_angstrom>
6.8437999999999999

> <minimizedAffinity>
-7.56515

> <CNNscore>
0.0822731927

> <CNNaffinity>
4.2792186737

> <CNN_VS>
0.3520649970

> <CNNaffinity_variance>
1.1757017374

$$$$
BACE1_verubecestat__alternate_457_seed3301_ex32__pose12


 31 33  0  0  0  0  0  0  0  0999 V2000
   24.6220   12.9660   20.1780 C   0  0  0  0  0  0  0  0  0  0  0  0
   23.7690   12.4200   21.1360 C   0  0  0  0  0  0  0  0  0  0  0  0
   23.6590   12.9400   22.4060 C   0  0  0  0  0  0  0  0  0  0  0  0
   24.4260   14.0330   22.7870 C   0  0  0  0  0  0  0  0  0  0  0  0
   25.2760   14.5910   21.8480 C   0  0  0  0  0  0  0  0  0  0  0  0
   25.3520   14.0780   20.5680 C   0  0  0  0  0  0  0  0  0  0  0  0
   26.1720   14.6610   19.6570 F   0  0  0  0  0  0  0  0  0  0  0  0
   20.5930   13.1430   17.7530 C   0  0  0  0  0  0  0  0  0  0  0  0
   22.0220   12.8530   17.9830 N   0  0  0  0  0  0  0  0  0  0  0  0
   22.5100   11.5570   18.2620 C   0  0  0  0  0  0  0  0  0  0  0  0
   21.5660   10.5720   18.1490 N   0  0  0  0  0  0  0  0  0  0  0  0
   23.7430   11.3020   18.5730 N   0  0  0  0  0  0  0  0  0  0  0  0
   24.7190   12.3700   18.7830 C   0  0  0  0  0  0  0  0  0  0  0  0
   26.0590   11.6410   18.6480 C   0  0  0  0  0  0  0  0  0  0  0  0
   24.6440   13.3720   17.6520 C   0  0  0  0  0  0  0  0  0  0  0  0
   23.0630   14.1790   17.6330 S   0  0  0  0  0  0  0  0  0  0  0  0
   22.8140   14.5690   16.2570 O   0  0  0  0  0  0  0  0  0  0  0  0
   22.9010   15.0480   18.7560 O   0  0  0  0  0  0  0  0  0  0  0  0
   21.8100    9.6350   18.3230 H   0  0  0  0  0  0  0  0  0  0  0  0
   20.6430   10.8010   17.8930 H   0  0  0  0  0  0  0  0  0  0  0  0
   22.7670   12.2950   23.2730 N   0  0  0  0  0  0  0  0  0  0  0  0
   23.0400   11.6830   24.4840 C   0  0  0  0  0  0  0  0  0  0  0  0
   24.1600   11.4920   24.9400 O   0  0  0  0  0  0  0  0  0  0  0  0
   21.8260   12.2750   22.9840 H   0  0  0  0  0  0  0  0  0  0  0  0
   21.8500   11.2740   25.2690 C   0  0  0  0  0  0  0  0  0  0  0  0
   21.6000    9.9320   25.4980 C   0  0  0  0  0  0  0  0  0  0  0  0
   20.4750    9.6080   26.2350 C   0  0  0  0  0  0  0  0  0  0  0  0
   19.6540   10.6110   26.7140 C   0  0  0  0  0  0  0  0  0  0  0  0
   18.5460   10.3440   27.4260 F   0  0  0  0  0  0  0  0  0  0  0  0
   19.9830   11.9160   26.4290 C   0  0  0  0  0  0  0  0  0  0  0  0
   21.0650   12.2620   25.7120 N   0  0  0  0  0  0  0  0  0  0  0  0
  8  9  1  0
  9 10  1  0
 10 11  1  0
 10 12  2  0
 12 13  1  0
 13 14  1  0
 13  1  1  0
  1  2  2  0
  2  3  1  0
  3 21  1  0
 21 22  1  0
 22 23  2  0
 22 25  1  0
 25 26  2  0
 26 27  1  0
 27 28  2  0
 28 29  1  0
 28 30  1  0
 30 31  2  0
  3  4  2  0
  4  5  1  0
  5  6  2  0
  6  7  1  0
 13 15  1  0
 15 16  1  0
 16 17  2  0
 16 18  2  0
 16  9  1  0
  6  1  1  0
 31 25  1  0
 11 19  1  0
 11 20  1  0
 21 24  1  0
M  END
> <meeko>
{"is_sidechain": false}

> <source_group>
BACE1-457

> <source_system>
BACE1_verubecestat

> <source_run>
alternate_457_seed3301_ex32

> <source_seed>
3301

> <vina_pose_rank>
12

> <vina_affinity_kcal_mol>
-7.1200000000000001

> <vina_rmsd_to_crystal_angstrom>
7.2525000000000004

> <minimizedAffinity>
-7.03732

> <CNNscore>
0.0426563397

> <CNNaffinity>
4.3076534271

> <CNN_VS>
0.1837487221

> <CNNaffinity_variance>
0.8521933556

$$$$
BACE1_verubecestat__alternate_457_seed3301_ex32__pose13


 31 33  0  0  0  0  0  0  0  0999 V2000
   24.0550    6.6050   14.8050 C   0  0  0  0  0  0  0  0  0  0  0  0
   25.4320    6.7600   14.9500 C   0  0  0  0  0  0  0  0  0  0  0  0
   26.3170    6.4620   13.9390 C   0  0  0  0  0  0  0  0  0  0  0  0
   25.8580    5.9650   12.7250 C   0  0  0  0  0  0  0  0  0  0  0  0
   24.4930    5.8080   12.5620 C   0  0  0  0  0  0  0  0  0  0  0  0
   23.6140    6.1420   13.5740 C   0  0  0  0  0  0  0  0  0  0  0  0
   22.2780    6.0060   13.3780 F   0  0  0  0  0  0  0  0  0  0  0  0
   23.8560   11.2010   15.7990 C   0  0  0  0  0  0  0  0  0  0  0  0
   23.5000    9.7730   15.9220 N   0  0  0  0  0  0  0  0  0  0  0  0
   23.9860    8.9450   16.9580 C   0  0  0  0  0  0  0  0  0  0  0  0
   24.6900    9.6170   17.9210 N   0  0  0  0  0  0  0  0  0  0  0  0
   23.7730    7.6670   17.0210 N   0  0  0  0  0  0  0  0  0  0  0  0
   23.1020    6.9470   15.9400 C   0  0  0  0  0  0  0  0  0  0  0  0
   22.6560    5.6480   16.6180 C   0  0  0  0  0  0  0  0  0  0  0  0
   21.8480    7.6830   15.5240 C   0  0  0  0  0  0  0  0  0  0  0  0
   22.2510    9.2740   14.8480 S   0  0  0  0  0  0  0  0  0  0  0  0
   21.1050   10.1310   15.0940 O   0  0  0  0  0  0  0  0  0  0  0  0
   22.9110    9.1590   13.5850 O   0  0  0  0  0  0  0  0  0  0  0  0
   25.0690    9.1260   18.6860 H   0  0  0  0  0  0  0  0  0  0  0  0
   24.8170   10.5910   17.8500 H   0  0  0  0  0  0  0  0  0  0  0  0
   27.6760    6.6600   14.2150 N   0  0  0  0  0  0  0  0  0  0  0  0
   28.5520    5.8090   14.8640 C   0  0  0  0  0  0  0  0  0  0  0  0
   28.2360    4.7690   15.4280 O   0  0  0  0  0  0  0  0  0  0  0  0
   28.0560    7.5150   13.9080 H   0  0  0  0  0  0  0  0  0  0  0  0
   29.9790    6.2110   14.8160 C   0  0  0  0  0  0  0  0  0  0  0  0
   30.7770    5.8010   13.7620 C   0  0  0  0  0  0  0  0  0  0  0  0
   32.1010    6.2030   13.7690 C   0  0  0  0  0  0  0  0  0  0  0  0
   32.5770    6.9880   14.8020 C   0  0  0  0  0  0  0  0  0  0  0  0
   33.8560    7.3950   14.8560 F   0  0  0  0  0  0  0  0  0  0  0  0
   31.7070    7.3400   15.8090 C   0  0  0  0  0  0  0  0  0  0  0  0
   30.4190    6.9600   15.8320 N   0  0  0  0  0  0  0  0  0  0  0  0
  8  9  1  0
  9 10  1  0
 10 11  1  0
 10 12  2  0
 12 13  1  0
 13 14  1  0
 13  1  1  0
  1  2  2  0
  2  3  1  0
  3 21  1  0
 21 22  1  0
 22 23  2  0
 22 25  1  0
 25 26  2  0
 26 27  1  0
 27 28  2  0
 28 29  1  0
 28 30  1  0
 30 31  2  0
  3  4  2  0
  4  5  1  0
  5  6  2  0
  6  7  1  0
 13 15  1  0
 15 16  1  0
 16 17  2  0
 16 18  2  0
 16  9  1  0
  6  1  1  0
 31 25  1  0
 11 19  1  0
 11 20  1  0
 21 24  1  0
M  END
> <meeko>
{"is_sidechain": false}

> <source_group>
BACE1-457

> <source_system>
BACE1_verubecestat

> <source_run>
alternate_457_seed3301_ex32

> <source_seed>
3301

> <vina_pose_rank>
13

> <vina_affinity_kcal_mol>
-7.0869999999999997

> <vina_rmsd_to_crystal_angstrom>
7.9827000000000004

> <minimizedAffinity>
-7.04085

> <CNNscore>
0.1555390805

> <CNNaffinity>
4.7172646523

> <CNN_VS>
0.7337189913

> <CNNaffinity_variance>
0.6635864973

$$$$
BACE1_verubecestat__alternate_457_seed3301_ex32__pose14


 31 33  0  0  0  0  0  0  0  0999 V2000
   23.5310   12.9520   19.8030 C   0  0  0  0  0  0  0  0  0  0  0  0
   22.9820   12.4700   20.9900 C   0  0  0  0  0  0  0  0  0  0  0  0
   23.7050   12.3950   22.1590 C   0  0  0  0  0  0  0  0  0  0  0  0
   25.0380   12.7860   22.1880 C   0  0  0  0  0  0  0  0  0  0  0  0
   25.5980   13.2710   21.0190 C   0  0  0  0  0  0  0  0  0  0  0  0
   24.8520   13.3700   19.8620 C   0  0  0  0  0  0  0  0  0  0  0  0
   25.4170   13.8760   18.7360 F   0  0  0  0  0  0  0  0  0  0  0  0
   24.0770    9.2320   16.9720 C   0  0  0  0  0  0  0  0  0  0  0  0
   23.5200   10.5260   17.4140 N   0  0  0  0  0  0  0  0  0  0  0  0
   23.9330   11.7660   16.8790 C   0  0  0  0  0  0  0  0  0  0  0  0
   24.7830   11.6540   15.8110 N   0  0  0  0  0  0  0  0  0  0  0  0
   23.5350   12.9150   17.3300 N   0  0  0  0  0  0  0  0  0  0  0  0
   22.7050   13.0250   18.5280 C   0  0  0  0  0  0  0  0  0  0  0  0
   22.1080   14.4290   18.4050 C   0  0  0  0  0  0  0  0  0  0  0  0
   21.5540   12.0460   18.4540 C   0  0  0  0  0  0  0  0  0  0  0  0
   22.1520   10.3740   18.4480 S   0  0  0  0  0  0  0  0  0  0  0  0
   21.1620    9.5830   17.7390 O   0  0  0  0  0  0  0  0  0  0  0  0
   22.7160   10.0120   19.7110 O   0  0  0  0  0  0  0  0  0  0  0  0
   25.1260   12.4640   15.3680 H   0  0  0  0  0  0  0  0  0  0  0  0
   25.0500   10.7650   15.4840 H   0  0  0  0  0  0  0  0  0  0  0  0
   23.0350   11.8890   23.2800 N   0  0  0  0  0  0  0  0  0  0  0  0
   22.3860   12.5910   24.2810 C   0  0  0  0  0  0  0  0  0  0  0  0
   22.4060   13.8080   24.4140 O   0  0  0  0  0  0  0  0  0  0  0  0
   23.0240   10.9080   23.3670 H   0  0  0  0  0  0  0  0  0  0  0  0
   21.5900   11.7650   25.2200 C   0  0  0  0  0  0  0  0  0  0  0  0
   21.7900   10.3960   25.2760 C   0  0  0  0  0  0  0  0  0  0  0  0
   21.0180    9.6730   26.1690 C   0  0  0  0  0  0  0  0  0  0  0  0
   20.0950   10.3240   26.9640 C   0  0  0  0  0  0  0  0  0  0  0  0
   19.3170    9.6640   27.8390 F   0  0  0  0  0  0  0  0  0  0  0  0
   19.9650   11.6880   26.8320 C   0  0  0  0  0  0  0  0  0  0  0  0
   20.6950   12.4160   25.9700 N   0  0  0  0  0  0  0  0  0  0  0  0
  8  9  1  0
  9 10  1  0
 10 11  1  0
 10 12  2  0
 12 13  1  0
 13 14  1  0
 13  1  1  0
  1  2  2  0
  2  3  1  0
  3 21  1  0
 21 22  1  0
 22 23  2  0
 22 25  1  0
 25 26  2  0
 26 27  1  0
 27 28  2  0
 28 29  1  0
 28 30  1  0
 30 31  2  0
  3  4  2  0
  4  5  1  0
  5  6  2  0
  6  7  1  0
 13 15  1  0
 15 16  1  0
 16 17  2  0
 16 18  2  0
 16  9  1  0
  6  1  1  0
 31 25  1  0
 11 19  1  0
 11 20  1  0
 21 24  1  0
M  END
> <meeko>
{"is_sidechain": false}

> <source_group>
BACE1-457

> <source_system>
BACE1_verubecestat

> <source_run>
alternate_457_seed3301_ex32

> <source_seed>
3301

> <vina_pose_rank>
14

> <vina_affinity_kcal_mol>
-7.085

> <vina_rmsd_to_crystal_angstrom>
7.2252000000000001

> <minimizedAffinity>
-7.48011

> <CNNscore>
0.1122618094

> <CNNaffinity>
5.0331492424

> <CNN_VS>
0.5650304556

> <CNNaffinity_variance>
0.2027618438

$$$$
BACE1_verubecestat__alternate_457_seed3301_ex32__pose15


 31 33  0  0  0  0  0  0  0  0999 V2000
   25.5120   12.1010   20.9070 C   0  0  0  0  0  0  0  0  0  0  0  0
   24.8460   11.6700   22.0540 C   0  0  0  0  0  0  0  0  0  0  0  0
   23.5000   11.8830   22.2480 C   0  0  0  0  0  0  0  0  0  0  0  0
   22.7520   12.5660   21.2980 C   0  0  0  0  0  0  0  0  0  0  0  0
   23.3950   12.9980   20.1510 C   0  0  0  0  0  0  0  0  0  0  0  0
   24.7400   12.7500   19.9560 C   0  0  0  0  0  0  0  0  0  0  0  0
   25.3400   13.1590   18.8090 F   0  0  0  0  0  0  0  0  0  0  0  0
   28.2340   15.6860   22.2810 C   0  0  0  0  0  0  0  0  0  0  0  0
   27.9330   14.3390   21.7550 N   0  0  0  0  0  0  0  0  0  0  0  0
   27.9960   14.0170   20.3810 C   0  0  0  0  0  0  0  0  0  0  0  0
   28.5060   15.0180   19.5990 N   0  0  0  0  0  0  0  0  0  0  0  0
   27.6310   12.8730   19.8910 N   0  0  0  0  0  0  0  0  0  0  0  0
   27.0000   11.8480   20.7210 C   0  0  0  0  0  0  0  0  0  0  0  0
   27.1840   10.5740   19.8920 C   0  0  0  0  0  0  0  0  0  0  0  0
   27.7830   11.6610   22.0010 C   0  0  0  0  0  0  0  0  0  0  0  0
   27.7490   13.1420   22.9790 S   0  0  0  0  0  0  0  0  0  0  0  0
   28.9670   13.1450   23.7690 O   0  0  0  0  0  0  0  0  0  0  0  0
   26.4460   13.3940   23.5100 O   0  0  0  0  0  0  0  0  0  0  0  0
   28.5900   14.8880   18.6260 H   0  0  0  0  0  0  0  0  0  0  0  0
   28.7900   15.8680   20.0080 H   0  0  0  0  0  0  0  0  0  0  0  0
   22.9550   11.4010   23.4450 N   0  0  0  0  0  0  0  0  0  0  0  0
   22.8760   12.0410   24.6690 C   0  0  0  0  0  0  0  0  0  0  0  0
   23.4010   13.1130   24.9390 O   0  0  0  0  0  0  0  0  0  0  0  0
   22.5800   10.4920   23.4110 H   0  0  0  0  0  0  0  0  0  0  0  0
   22.0520   11.3520   25.6920 C   0  0  0  0  0  0  0  0  0  0  0  0
   21.3460   10.2100   25.3560 C   0  0  0  0  0  0  0  0  0  0  0  0
   20.5910    9.6100   26.3480 C   0  0  0  0  0  0  0  0  0  0  0  0
   20.5690   10.1520   27.6180 C   0  0  0  0  0  0  0  0  0  0  0  0
   19.8440    9.6090   28.6110 F   0  0  0  0  0  0  0  0  0  0  0  0
   21.3000   11.2940   27.8540 C   0  0  0  0  0  0  0  0  0  0  0  0
   22.0370   11.9030   26.9100 N   0  0  0  0  0  0  0  0  0  0  0  0
  8  9  1  0
  9 10  1  0
 10 11  1  0
 10 12  2  0
 12 13  1  0
 13 14  1  0
 13  1  1  0
  1  2  2  0
  2  3  1  0
  3 21  1  0
 21 22  1  0
 22 23  2  0
 22 25  1  0
 25 26  2  0
 26 27  1  0
 27 28  2  0
 28 29  1  0
 28 30  1  0
 30 31  2  0
  3  4  2  0
  4  5  1  0
  5  6  2  0
  6  7  1  0
 13 15  1  0
 15 16  1  0
 16 17  2  0
 16 18  2  0
 16  9  1  0
  6  1  1  0
 31 25  1  0
 11 19  1  0
 11 20  1  0
 21 24  1  0
M  END
> <meeko>
{"is_sidechain": false}

> <source_group>
BACE1-457

> <source_system>
BACE1_verubecestat

> <source_run>
alternate_457_seed3301_ex32

> <source_seed>
3301

> <vina_pose_rank>
15

> <vina_affinity_kcal_mol>
-7.0439999999999996

> <vina_rmsd_to_crystal_angstrom>
7.3090999999999999

> <minimizedAffinity>
-7.41449

> <CNNscore>
0.0734043270

> <CNNaffinity>
4.7656135559

> <CNN_VS>
0.3498166502

> <CNNaffinity_variance>
0.5037977099

$$$$
BACE1_verubecestat__alternate_457_seed3301_ex32__pose16


 31 33  0  0  0  0  0  0  0  0999 V2000
   23.8950   12.3180   21.0340 C   0  0  0  0  0  0  0  0  0  0  0  0
   23.7020   11.0510   20.4850 C   0  0  0  0  0  0  0  0  0  0  0  0
   22.9850   10.0700   21.1320 C   0  0  0  0  0  0  0  0  0  0  0  0
   22.4390   10.3100   22.3870 C   0  0  0  0  0  0  0  0  0  0  0  0
   22.6170   11.5630   22.9450 C   0  0  0  0  0  0  0  0  0  0  0  0
   23.3120   12.5480   22.2700 C   0  0  0  0  0  0  0  0  0  0  0  0
   23.4470   13.7790   22.8270 F   0  0  0  0  0  0  0  0  0  0  0  0
   28.2550   12.9340   22.6940 C   0  0  0  0  0  0  0  0  0  0  0  0
   27.1060   13.1550   21.7940 N   0  0  0  0  0  0  0  0  0  0  0  0
   26.2500   14.2740   21.9000 C   0  0  0  0  0  0  0  0  0  0  0  0
   26.6670   15.2080   22.8090 N   0  0  0  0  0  0  0  0  0  0  0  0
   25.1750   14.4290   21.1900 N   0  0  0  0  0  0  0  0  0  0  0  0
   24.6890   13.3820   20.2930 C   0  0  0  0  0  0  0  0  0  0  0  0
   23.7450   14.1430   19.3580 C   0  0  0  0  0  0  0  0  0  0  0  0
   25.8260   12.8580   19.4430 C   0  0  0  0  0  0  0  0  0  0  0  0
   27.0550   12.0740   20.4550 S   0  0  0  0  0  0  0  0  0  0  0  0
   28.3170   12.2040   19.7490 O   0  0  0  0  0  0  0  0  0  0  0  0
   26.5720   10.8530   21.0200 O   0  0  0  0  0  0  0  0  0  0  0  0
   26.1360   16.0250   22.9540 H   0  0  0  0  0  0  0  0  0  0  0  0
   27.4980   15.0650   23.3170 H   0  0  0  0  0  0  0  0  0  0  0  0
   22.8690    8.8400   20.4720 N   0  0  0  0  0  0  0  0  0  0  0  0
   22.0580    8.5160   19.3990 C   0  0  0  0  0  0  0  0  0  0  0  0
   21.1950    9.2430   18.9240 O   0  0  0  0  0  0  0  0  0  0  0  0
   23.4370    8.1130   20.8160 H   0  0  0  0  0  0  0  0  0  0  0  0
   22.3150    7.1890   18.7890 C   0  0  0  0  0  0  0  0  0  0  0  0
   22.0940    6.0370   19.5230 C   0  0  0  0  0  0  0  0  0  0  0  0
   22.3530    4.8260   18.9050 C   0  0  0  0  0  0  0  0  0  0  0  0
   22.8090    4.8020   17.6010 C   0  0  0  0  0  0  0  0  0  0  0  0
   23.0820    3.6520   16.9630 F   0  0  0  0  0  0  0  0  0  0  0  0
   23.0030    6.0020   16.9550 C   0  0  0  0  0  0  0  0  0  0  0  0
   22.7670    7.1930   17.5310 N   0  0  0  0  0  0  0  0  0  0  0  0
  8  9  1  0
  9 10  1  0
 10 11  1  0
 10 12  2  0
 12 13  1  0
 13 14  1  0
 13  1  1  0
  1  2  2  0
  2  3  1  0
  3 21  1  0
 21 22  1  0
 22 23  2  0
 22 25  1  0
 25 26  2  0
 26 27  1  0
 27 28  2  0
 28 29  1  0
 28 30  1  0
 30 31  2  0
  3  4  2  0
  4  5  1  0
  5  6  2  0
  6  7  1  0
 13 15  1  0
 15 16  1  0
 16 17  2  0
 16 18  2  0
 16  9  1  0
  6  1  1  0
 31 25  1  0
 11 19  1  0
 11 20  1  0
 21 24  1  0
M  END
> <meeko>
{"is_sidechain": false}

> <source_group>
BACE1-457

> <source_system>
BACE1_verubecestat

> <source_run>
alternate_457_seed3301_ex32

> <source_seed>
3301

> <vina_pose_rank>
16

> <vina_affinity_kcal_mol>
-7.0149999999999997

> <vina_rmsd_to_crystal_angstrom>
6.7488999999999999

> <minimizedAffinity>
-7.44389

> <CNNscore>
0.0548389219

> <CNNaffinity>
4.1992359161

> <CNN_VS>
0.2302815765

> <CNNaffinity_variance>
1.5713390112

$$$$
BACE1_verubecestat__alternate_457_seed3301_ex32__pose17


 31 33  0  0  0  0  0  0  0  0999 V2000
   22.6070    7.5810   17.3430 C   0  0  0  0  0  0  0  0  0  0  0  0
   22.8390    8.3800   18.4610 C   0  0  0  0  0  0  0  0  0  0  0  0
   22.2040    8.1650   19.6640 C   0  0  0  0  0  0  0  0  0  0  0  0
   21.2780    7.1380   19.7960 C   0  0  0  0  0  0  0  0  0  0  0  0
   21.0380    6.3330   18.6970 C   0  0  0  0  0  0  0  0  0  0  0  0
   21.7060    6.5400   17.5060 C   0  0  0  0  0  0  0  0  0  0  0  0
   21.4740    5.7180   16.4510 F   0  0  0  0  0  0  0  0  0  0  0  0
   19.8670    9.4820   14.0220 C   0  0  0  0  0  0  0  0  0  0  0  0
   21.1180    8.9650   14.6120 N   0  0  0  0  0  0  0  0  0  0  0  0
   21.6390    7.6860   14.3140 C   0  0  0  0  0  0  0  0  0  0  0  0
   20.9660    7.0300   13.3190 N   0  0  0  0  0  0  0  0  0  0  0  0
   22.6750    7.1740   14.9040 N   0  0  0  0  0  0  0  0  0  0  0  0
   23.3270    7.8420   16.0290 C   0  0  0  0  0  0  0  0  0  0  0  0
   24.7020    7.1710   16.0760 C   0  0  0  0  0  0  0  0  0  0  0  0
   23.5580    9.3010   15.7030 C   0  0  0  0  0  0  0  0  0  0  0  0
   22.0120   10.1470   15.4880 S   0  0  0  0  0  0  0  0  0  0  0  0
   22.2680   11.2520   14.5810 O   0  0  0  0  0  0  0  0  0  0  0  0
   21.3010   10.2690   16.7220 O   0  0  0  0  0  0  0  0  0  0  0  0
   21.2540    6.1310   13.0400 H   0  0  0  0  0  0  0  0  0  0  0  0
   20.1940    7.4580   12.8810 H   0  0  0  0  0  0  0  0  0  0  0  0
   22.5240    9.0420   20.7080 N   0  0  0  0  0  0  0  0  0  0  0  0
   22.4010   10.4190   20.7390 C   0  0  0  0  0  0  0  0  0  0  0  0
   22.1010   11.1210   19.7820 O   0  0  0  0  0  0  0  0  0  0  0  0
   22.8830    8.6240   21.5250 H   0  0  0  0  0  0  0  0  0  0  0  0
   22.6240   11.0450   22.0650 C   0  0  0  0  0  0  0  0  0  0  0  0
   22.6580   12.4240   22.1810 C   0  0  0  0  0  0  0  0  0  0  0  0
   22.8720   12.9540   23.4410 C   0  0  0  0  0  0  0  0  0  0  0  0
   23.0370   12.1120   24.5240 C   0  0  0  0  0  0  0  0  0  0  0  0
   23.2560   12.5810   25.7640 F   0  0  0  0  0  0  0  0  0  0  0  0
   22.9930   10.7530   24.3070 C   0  0  0  0  0  0  0  0  0  0  0  0
   22.7930   10.2090   23.0950 N   0  0  0  0  0  0  0  0  0  0  0  0
  8  9  1  0
  9 10  1  0
 10 11  1  0
 10 12  2  0
 12 13  1  0
 13 14  1  0
 13  1  1  0
  1  2  2  0
  2  3  1  0
  3 21  1  0
 21 22  1  0
 22 23  2  0
 22 25  1  0
 25 26  2  0
 26 27  1  0
 27 28  2  0
 28 29  1  0
 28 30  1  0
 30 31  2  0
  3  4  2  0
  4  5  1  0
  5  6  2  0
  6  7  1  0
 13 15  1  0
 15 16  1  0
 16 17  2  0
 16 18  2  0
 16  9  1  0
  6  1  1  0
 31 25  1  0
 11 19  1  0
 11 20  1  0
 21 24  1  0
M  END
> <meeko>
{"is_sidechain": false}

> <source_group>
BACE1-457

> <source_system>
BACE1_verubecestat

> <source_run>
alternate_457_seed3301_ex32

> <source_seed>
3301

> <vina_pose_rank>
17

> <vina_affinity_kcal_mol>
-6.976

> <vina_rmsd_to_crystal_angstrom>
7.4264000000000001

> <minimizedAffinity>
-7.53346

> <CNNscore>
0.2401714772

> <CNNaffinity>
5.3241429329

> <CNN_VS>
1.2787072659

> <CNNaffinity_variance>
0.2718710601

$$$$
BACE1_verubecestat__alternate_457_seed3301_ex32__pose18


 31 33  0  0  0  0  0  0  0  0999 V2000
   23.4020   10.5530   18.4470 C   0  0  0  0  0  0  0  0  0  0  0  0
   23.0230   10.3150   19.7670 C   0  0  0  0  0  0  0  0  0  0  0  0
   22.6470   11.3280   20.6190 C   0  0  0  0  0  0  0  0  0  0  0  0
   22.6560   12.6490   20.1880 C   0  0  0  0  0  0  0  0  0  0  0  0
   23.0270   12.9040   18.8800 C   0  0  0  0  0  0  0  0  0  0  0  0
   23.3700   11.8730   18.0270 C   0  0  0  0  0  0  0  0  0  0  0  0
   23.7020   12.1470   16.7390 F   0  0  0  0  0  0  0  0  0  0  0  0
   19.9910    7.3920   17.7220 C   0  0  0  0  0  0  0  0  0  0  0  0
   21.3250    8.0050   17.5600 N   0  0  0  0  0  0  0  0  0  0  0  0
   22.4800    7.5170   18.2100 C   0  0  0  0  0  0  0  0  0  0  0  0
   22.2860    6.3390   18.8790 N   0  0  0  0  0  0  0  0  0  0  0  0
   23.6360    8.1060   18.1660 N   0  0  0  0  0  0  0  0  0  0  0  0
   23.8090    9.4110   17.5290 C   0  0  0  0  0  0  0  0  0  0  0  0
   25.3210    9.4790   17.2940 C   0  0  0  0  0  0  0  0  0  0  0  0
   23.1490    9.4160   16.1680 C   0  0  0  0  0  0  0  0  0  0  0  0
   21.3940    9.1990   16.3220 S   0  0  0  0  0  0  0  0  0  0  0  0
   20.9450    8.5700   15.0930 O   0  0  0  0  0  0  0  0  0  0  0  0
   20.7710   10.3420   16.9140 O   0  0  0  0  0  0  0  0  0  0  0  0
   23.0330    5.9190   19.3630 H   0  0  0  0  0  0  0  0  0  0  0  0
   21.3990    5.9110   18.8750 H   0  0  0  0  0  0  0  0  0  0  0  0
   22.2920   10.9540   21.9210 N   0  0  0  0  0  0  0  0  0  0  0  0
   22.9480   11.2410   23.1050 C   0  0  0  0  0  0  0  0  0  0  0  0
   24.0450   11.7760   23.1900 O   0  0  0  0  0  0  0  0  0  0  0  0
   21.4690   10.4190   22.0050 H   0  0  0  0  0  0  0  0  0  0  0  0
   22.2090   10.8850   24.3410 C   0  0  0  0  0  0  0  0  0  0  0  0
   21.9110   11.8630   25.2740 C   0  0  0  0  0  0  0  0  0  0  0  0
   21.2210   11.4750   26.4090 C   0  0  0  0  0  0  0  0  0  0  0  0
   20.8560   10.1530   26.5740 C   0  0  0  0  0  0  0  0  0  0  0  0
   20.1940    9.7280   27.6640 F   0  0  0  0  0  0  0  0  0  0  0  0
   21.2030    9.2520   25.5930 C   0  0  0  0  0  0  0  0  0  0  0  0
   21.8770    9.5980   24.4830 N   0  0  0  0  0  0  0  0  0  0  0  0
  8  9  1  0
  9 10  1  0
 10 11  1  0
 10 12  2  0
 12 13  1  0
 13 14  1  0
 13  1  1  0
  1  2  2  0
  2  3  1  0
  3 21  1  0
 21 22  1  0
 22 23  2  0
 22 25  1  0
 25 26  2  0
 26 27  1  0
 27 28  2  0
 28 29  1  0
 28 30  1  0
 30 31  2  0
  3  4  2  0
  4  5  1  0
  5  6  2  0
  6  7  1  0
 13 15  1  0
 15 16  1  0
 16 17  2  0
 16 18  2  0
 16  9  1  0
  6  1  1  0
 31 25  1  0
 11 19  1  0
 11 20  1  0
 21 24  1  0
M  END
> <meeko>
{"is_sidechain": false}

> <source_group>
BACE1-457

> <source_system>
BACE1_verubecestat

> <source_run>
alternate_457_seed3301_ex32

> <source_seed>
3301

> <vina_pose_rank>
18

> <vina_affinity_kcal_mol>
-6.9400000000000004

> <vina_rmsd_to_crystal_angstrom>
6.7986000000000004

> <minimizedAffinity>
-6.80291

> <CNNscore>
0.1969885528

> <CNNaffinity>
5.2510190010

> <CNN_VS>
1.0343906879

> <CNNaffinity_variance>
0.3949926794

$$$$
BACE1_verubecestat__alternate_457_seed3301_ex32__pose19


 31 33  0  0  0  0  0  0  0  0999 V2000
   25.3350   12.9450   22.7460 C   0  0  0  0  0  0  0  0  0  0  0  0
   24.6370   11.9850   22.0150 C   0  0  0  0  0  0  0  0  0  0  0  0
   23.2930   11.7520   22.2000 C   0  0  0  0  0  0  0  0  0  0  0  0
   22.5810   12.4660   23.1560 C   0  0  0  0  0  0  0  0  0  0  0  0
   23.2570   13.4260   23.8890 C   0  0  0  0  0  0  0  0  0  0  0  0
   24.5990   13.6710   23.6690 C   0  0  0  0  0  0  0  0  0  0  0  0
   25.2320   14.6380   24.3810 F   0  0  0  0  0  0  0  0  0  0  0  0
   26.4570   13.7350   18.2440 C   0  0  0  0  0  0  0  0  0  0  0  0
   26.6980   13.5900   19.6930 N   0  0  0  0  0  0  0  0  0  0  0  0
   27.2620   12.4290   20.2670 C   0  0  0  0  0  0  0  0  0  0  0  0
   27.7040   11.5140   19.3500 N   0  0  0  0  0  0  0  0  0  0  0  0
   27.3810   12.2410   21.5460 N   0  0  0  0  0  0  0  0  0  0  0  0
   26.8200   13.1810   22.5150 C   0  0  0  0  0  0  0  0  0  0  0  0
   27.5800   12.8410   23.8010 C   0  0  0  0  0  0  0  0  0  0  0  0
   27.1940   14.5980   22.1410 C   0  0  0  0  0  0  0  0  0  0  0  0
   26.4710   15.0460   20.5830 S   0  0  0  0  0  0  0  0  0  0  0  0
   27.3420   16.0490   19.9960 O   0  0  0  0  0  0  0  0  0  0  0  0
   25.0500   15.1710   20.6770 O   0  0  0  0  0  0  0  0  0  0  0  0
   28.1130   10.6710   19.6540 H   0  0  0  0  0  0  0  0  0  0  0  0
   27.6140   11.6980   18.3870 H   0  0  0  0  0  0  0  0  0  0  0  0
   22.7120   10.7580   21.4030 N   0  0  0  0  0  0  0  0  0  0  0  0
   22.2700   10.8570   20.0960 C   0  0  0  0  0  0  0  0  0  0  0  0
   22.1980   11.8960   19.4540 O   0  0  0  0  0  0  0  0  0  0  0  0
   22.6060    9.8750   21.8270 H   0  0  0  0  0  0  0  0  0  0  0  0
   21.8970    9.5730   19.4550 C   0  0  0  0  0  0  0  0  0  0  0  0
   22.2580    8.3740   20.0460 C   0  0  0  0  0  0  0  0  0  0  0  0
   21.8860    7.2070   19.4030 C   0  0  0  0  0  0  0  0  0  0  0  0
   21.1770    7.2690   18.2190 C   0  0  0  0  0  0  0  0  0  0  0  0
   20.8030    6.1620   17.5550 F   0  0  0  0  0  0  0  0  0  0  0  0
   20.8690    8.5090   17.7060 C   0  0  0  0  0  0  0  0  0  0  0  0
   21.2210    9.6590   18.3040 N   0  0  0  0  0  0  0  0  0  0  0  0
  8  9  1  0
  9 10  1  0
 10 11  1  0
 10 12  2  0
 12 13  1  0
 13 14  1  0
 13  1  1  0
  1  2  2  0
  2  3  1  0
  3 21  1  0
 21 22  1  0
 22 23  2  0
 22 25  1  0
 25 26  2  0
 26 27  1  0
 27 28  2  0
 28 29  1  0
 28 30  1  0
 30 31  2  0
  3  4  2  0
  4  5  1  0
  5  6  2  0
  6  7  1  0
 13 15  1  0
 15 16  1  0
 16 17  2  0
 16 18  2  0
 16  9  1  0
  6  1  1  0
 31 25  1  0
 11 19  1  0
 11 20  1  0
 21 24  1  0
M  END
> <meeko>
{"is_sidechain": false}

> <source_group>
BACE1-457

> <source_system>
BACE1_verubecestat

> <source_run>
alternate_457_seed3301_ex32

> <source_seed>
3301

> <vina_pose_rank>
19

> <vina_affinity_kcal_mol>
-6.9290000000000003

> <vina_rmsd_to_crystal_angstrom>
7.2083000000000004

> <minimizedAffinity>
-6.67438

> <CNNscore>
0.0428110585

> <CNNaffinity>
4.1180768013

> <CNN_VS>
0.1762992293

> <CNNaffinity_variance>
1.0368789434

$$$$
BACE1_verubecestat__alternate_457_seed3301_ex32__pose20


 31 33  0  0  0  0  0  0  0  0999 V2000
   22.8140   11.9170   19.8050 C   0  0  0  0  0  0  0  0  0  0  0  0
   22.6930   10.5520   19.5470 C   0  0  0  0  0  0  0  0  0  0  0  0
   21.8920   10.0610   18.5410 C   0  0  0  0  0  0  0  0  0  0  0  0
   21.1470   10.9260   17.7500 C   0  0  0  0  0  0  0  0  0  0  0  0
   21.2570   12.2850   17.9890 C   0  0  0  0  0  0  0  0  0  0  0  0
   22.0900   12.7640   18.9810 C   0  0  0  0  0  0  0  0  0  0  0  0
   22.2030   14.1030   19.1770 F   0  0  0  0  0  0  0  0  0  0  0  0
   27.4120   11.4910   18.8970 C   0  0  0  0  0  0  0  0  0  0  0  0
   26.2160   11.8780   19.6710 N   0  0  0  0  0  0  0  0  0  0  0  0
   25.7410   11.1380   20.7760 C   0  0  0  0  0  0  0  0  0  0  0  0
   26.5720   10.1190   21.1610 N   0  0  0  0  0  0  0  0  0  0  0  0
   24.6340   11.4000   21.3990 N   0  0  0  0  0  0  0  0  0  0  0  0
   23.7100   12.4280   20.9220 C   0  0  0  0  0  0  0  0  0  0  0  0
   22.8480   12.7130   22.1560 C   0  0  0  0  0  0  0  0  0  0  0  0
   24.4660   13.7000   20.6060 C   0  0  0  0  0  0  0  0  0  0  0  0
   25.6040   13.4370   19.2700 S   0  0  0  0  0  0  0  0  0  0  0  0
   26.6880   14.3850   19.4560 O   0  0  0  0  0  0  0  0  0  0  0  0
   24.9230   13.2280   18.0300 O   0  0  0  0  0  0  0  0  0  0  0  0
   26.3270    9.5460   21.9230 H   0  0  0  0  0  0  0  0  0  0  0  0
   27.4140    9.9600   20.6750 H   0  0  0  0  0  0  0  0  0  0  0  0
   21.8580    8.6690   18.3890 N   0  0  0  0  0  0  0  0  0  0  0  0
   22.8130    7.8450   17.8200 C   0  0  0  0  0  0  0  0  0  0  0  0
   23.8120    8.2300   17.2280 O   0  0  0  0  0  0  0  0  0  0  0  0
   21.0510    8.2200   18.7310 H   0  0  0  0  0  0  0  0  0  0  0  0
   22.5810    6.3910   17.9980 C   0  0  0  0  0  0  0  0  0  0  0  0
   22.0240    5.9180   19.1740 C   0  0  0  0  0  0  0  0  0  0  0  0
   21.8320    4.5530   19.2870 C   0  0  0  0  0  0  0  0  0  0  0  0
   22.1910    3.7190   18.2450 C   0  0  0  0  0  0  0  0  0  0  0  0
   22.0320    2.3860   18.3130 F   0  0  0  0  0  0  0  0  0  0  0  0
   22.7430    4.2830   17.1180 C   0  0  0  0  0  0  0  0  0  0  0  0
   22.9470    5.6040   16.9810 N   0  0  0  0  0  0  0  0  0  0  0  0
  8  9  1  0
  9 10  1  0
 10 11  1  0
 10 12  2  0
 12 13  1  0
 13 14  1  0
 13  1  1  0
  1  2  2  0
  2  3  1  0
  3 21  1  0
 21 22  1  0
 22 23  2  0
 22 25  1  0
 25 26  2  0
 26 27  1  0
 27 28  2  0
 28 29  1  0
 28 30  1  0
 30 31  2  0
  3  4  2  0
  4  5  1  0
  5  6  2  0
  6  7  1  0
 13 15  1  0
 15 16  1  0
 16 17  2  0
 16 18  2  0
 16  9  1  0
  6  1  1  0
 31 25  1  0
 11 19  1  0
 11 20  1  0
 21 24  1  0
M  END
> <meeko>
{"is_sidechain": false}

> <source_group>
BACE1-457

> <source_system>
BACE1_verubecestat

> <source_run>
alternate_457_seed3301_ex32

> <source_seed>
3301

> <vina_pose_rank>
20

> <vina_affinity_kcal_mol>
-6.8540000000000001

> <vina_rmsd_to_crystal_angstrom>
6.5960000000000001

> <minimizedAffinity>
-6.85440

> <CNNscore>
0.2923794389

> <CNNaffinity>
5.9324841499

> <CNN_VS>
1.7345364094

> <CNNaffinity_variance>
0.0901468471

$$$$
