CHRNA7_encenicline__hybrid_A_face_seed4409_ex32__pose01
     RDKit          3D

 38 41  0  0  0  0  0  0  0  0999 V2000
  142.0280  140.4270   90.9420 O   0  0  0  0  0  0  0  0  0  0  0  0
  142.1610  139.2700   90.7270 C   0  0  0  0  0  0  0  0  0  0  0  0
  141.0140  138.4730   90.3380 N   0  0  0  0  0  0  0  0  0  0  0  0
  139.6860  139.1180   90.2180 C   0  0  1  0  0  0  0  0  0  0  0  0
  139.3970  139.4550   88.7420 C   0  0  0  0  0  0  0  0  0  0  0  0
  138.2270  138.8310   88.3000 N   0  0  0  0  0  0  0  0  0  0  0  0
  137.1570  139.2120   89.0790 C   0  0  0  0  0  0  0  0  0  0  0  0
  137.3690  138.8470   90.5190 C   0  0  0  0  0  0  0  0  0  0  0  0
  138.6450  138.2100   90.6910 C   0  0  0  0  0  0  0  0  0  0  0  0
  138.6740  137.0060   89.8640 C   0  0  0  0  0  0  0  0  0  0  0  0
  138.3820  137.4240   88.3730 C   0  0  0  0  0  0  0  0  0  0  0  0
  143.5470  138.6290   90.8580 C   0  0  0  0  0  0  0  0  0  0  0  0
  143.7940  137.3190   91.0890 C   0  0  0  0  0  0  0  0  0  0  0  0
  145.1520  136.8630   91.1860 C   0  0  0  0  0  0  0  0  0  0  0  0
  145.5680  135.5780   91.4130 C   0  0  0  0  0  0  0  0  0  0  0  0
  146.9310  135.2870   91.4820 C   0  0  0  0  0  0  0  0  0  0  0  0
  147.8770  136.3130   91.3200 C   0  0  0  0  0  0  0  0  0  0  0  0
  147.4590  137.6270   91.0870 C   0  0  0  0  0  0  0  0  0  0  0  0
  148.6640  138.9240   90.8790 Cl  0  0  0  0  0  0  0  0  0  0  0  0
  146.1170  137.9160   91.0180 C   0  0  0  0  0  0  0  0  0  0  0  0
  145.1030  139.4010   90.7460 S   0  0  0  0  0  0  0  0  0  0  0  0
  141.1160  137.5120   90.1550 H   0  0  0  0  0  0  0  0  0  0  0  0
  139.6903  140.0365   90.8233 H   0  0  0  0  0  0  0  0  0  0  0  0
  139.2837  140.5442   88.6384 H   0  0  0  0  0  0  0  0  0  0  0  0
  140.2369  139.0922   88.1313 H   0  0  0  0  0  0  0  0  0  0  0  0
  137.0282  140.3017   89.0015 H   0  0  0  0  0  0  0  0  0  0  0  0
  136.2614  138.6857   88.7173 H   0  0  0  0  0  0  0  0  0  0  0  0
  137.3333  139.7589   91.1332 H   0  0  0  0  0  0  0  0  0  0  0  0
  136.5771  138.1502   90.8310 H   0  0  0  0  0  0  0  0  0  0  0  0
  138.8079  137.9573   91.7491 H   0  0  0  0  0  0  0  0  0  0  0  0
  139.6647  136.5326   89.9306 H   0  0  0  0  0  0  0  0  0  0  0  0
  137.9166  136.2883   90.2121 H   0  0  0  0  0  0  0  0  0  0  0  0
  139.2217  137.1137   87.7338 H   0  0  0  0  0  0  0  0  0  0  0  0
  137.4593  136.9344   88.0283 H   0  0  0  0  0  0  0  0  0  0  0  0
  142.9613  136.6091   91.2016 H   0  0  0  0  0  0  0  0  0  0  0  0
  144.8273  134.7749   91.5410 H   0  0  0  0  0  0  0  0  0  0  0  0
  147.2647  134.2546   91.6632 H   0  0  0  0  0  0  0  0  0  0  0  0
  148.9509  136.0818   91.3767 H   0  0  0  0  0  0  0  0  0  0  0  0
  1  2  2  0
  2  3  1  0
  3  4  1  0
  4  5  1  0
  5  6  1  0
  6  7  1  0
  7  8  1  0
  8  9  1  0
  9 10  1  0
 10 11  1  0
  2 12  1  0
 12 13  2  0
 13 14  1  0
 14 15  2  0
 15 16  1  0
 16 17  2  0
 17 18  1  0
 18 19  1  0
 18 20  2  0
 20 21  1  0
  9  4  1  0
 21 12  1  0
 11  6  1  0
 20 14  1  0
  3 22  1  0
  4 23  1  1
  5 24  1  0
  5 25  1  0
  7 26  1  0
  7 27  1  0
  8 28  1  0
  8 29  1  0
  9 30  1  0
 10 31  1  0
 10 32  1  0
 11 33  1  0
 11 34  1  0
 13 35  1  0
 15 36  1  0
 16 37  1  0
 17 38  1  0
M  END
>  <meeko>  (1)
{"is_sidechain": false}

>  <source_group>  (1)
CHRFAM7A at A face

>  <source_system>  (1)
CHRNA7_encenicline

>  <source_run>  (1)
hybrid_A_face_seed4409_ex32

>  <source_seed>  (1)
4409

>  <vina_pose_rank>  (1)
1

>  <vina_affinity_kcal_mol>  (1)
-7.5359999999999996

>  <vina_rmsd_to_crystal_angstrom>  (1)
2.0017999999999998

$$$$
CHRNA7_encenicline__hybrid_A_face_seed4409_ex32__pose02
     RDKit          3D

 38 41  0  0  0  0  0  0  0  0999 V2000
  142.3790  138.1450   90.8690 O   0  0  0  0  0  0  0  0  0  0  0  0
  142.4170  139.2010   90.3350 C   0  0  0  0  0  0  0  0  0  0  0  0
  141.1850  139.8360   89.9070 N   0  0  0  0  0  0  0  0  0  0  0  0
  139.8930  139.1530   90.1430 C   0  0  1  0  0  0  0  0  0  0  0  0
  138.8170  140.1850   90.5330 C   0  0  0  0  0  0  0  0  0  0  0  0
  137.7400  140.1540   89.6430 N   0  0  0  0  0  0  0  0  0  0  0  0
  137.1810  138.8950   89.6090 C   0  0  0  0  0  0  0  0  0  0  0  0
  138.1810  137.8650   89.1740 C   0  0  0  0  0  0  0  0  0  0  0  0
  139.4560  138.4770   88.9250 C   0  0  0  0  0  0  0  0  0  0  0  0
  139.2880  139.4800   87.8770 C   0  0  0  0  0  0  0  0  0  0  0  0
  138.1850  140.5040   88.3450 C   0  0  0  0  0  0  0  0  0  0  0  0
  143.7680  139.8860   90.1040 C   0  0  0  0  0  0  0  0  0  0  0  0
  144.3270  140.1480   88.9000 C   0  0  0  0  0  0  0  0  0  0  0  0
  145.6040  140.8000   88.8410 C   0  0  0  0  0  0  0  0  0  0  0  0
  146.2990  141.1360   87.7100 C   0  0  0  0  0  0  0  0  0  0  0  0
  147.5380  141.7700   87.8130 C   0  0  0  0  0  0  0  0  0  0  0  0
  148.0730  142.0640   89.0790 C   0  0  0  0  0  0  0  0  0  0  0  0
  147.3680  141.7250   90.2380 C   0  0  0  0  0  0  0  0  0  0  0  0
  148.0510  142.1020   91.8410 Cl  0  0  0  0  0  0  0  0  0  0  0  0
  146.1480  141.1000   90.1390 C   0  0  0  0  0  0  0  0  0  0  0  0
  144.8900  140.4790   91.2950 S   0  0  0  0  0  0  0  0  0  0  0  0
  141.2080  140.7150   89.4640 H   0  0  0  0  0  0  0  0  0  0  0  0
  140.0296  138.4220   90.9535 H   0  0  0  0  0  0  0  0  0  0  0  0
  138.4522  139.9576   91.5455 H   0  0  0  0  0  0  0  0  0  0  0  0
  139.2679  141.1877   90.4989 H   0  0  0  0  0  0  0  0  0  0  0  0
  136.8163  138.6378   90.6144 H   0  0  0  0  0  0  0  0  0  0  0  0
  136.3535  138.9025   88.8843 H   0  0  0  0  0  0  0  0  0  0  0  0
  138.2904  137.1094   89.9659 H   0  0  0  0  0  0  0  0  0  0  0  0
  137.8254  137.3927   88.2464 H   0  0  0  0  0  0  0  0  0  0  0  0
  140.1930  137.7190   88.6212 H   0  0  0  0  0  0  0  0  0  0  0  0
  140.2389  140.0075   87.7110 H   0  0  0  0  0  0  0  0  0  0  0  0
  138.9833  138.9981   86.9363 H   0  0  0  0  0  0  0  0  0  0  0  0
  138.6100  141.5184   88.3637 H   0  0  0  0  0  0  0  0  0  0  0  0
  137.3366  140.4761   87.6453 H   0  0  0  0  0  0  0  0  0  0  0  0
  143.8066  139.8634   87.9736 H   0  0  0  0  0  0  0  0  0  0  0  0
  145.8803  140.9059   86.7192 H   0  0  0  0  0  0  0  0  0  0  0  0
  148.0955  142.0395   86.9039 H   0  0  0  0  0  0  0  0  0  0  0  0
  149.0502  142.5627   89.1584 H   0  0  0  0  0  0  0  0  0  0  0  0
  1  2  2  0
  2  3  1  0
  3  4  1  0
  4  5  1  0
  5  6  1  0
  6  7  1  0
  7  8  1  0
  8  9  1  0
  9 10  1  0
 10 11  1  0
  2 12  1  0
 12 13  2  0
 13 14  1  0
 14 15  2  0
 15 16  1  0
 16 17  2  0
 17 18  1  0
 18 19  1  0
 18 20  2  0
 20 21  1  0
  9  4  1  0
 21 12  1  0
 11  6  1  0
 20 14  1  0
  3 22  1  0
  4 23  1  1
  5 24  1  0
  5 25  1  0
  7 26  1  0
  7 27  1  0
  8 28  1  0
  8 29  1  0
  9 30  1  0
 10 31  1  0
 10 32  1  0
 11 33  1  0
 11 34  1  0
 13 35  1  0
 15 36  1  0
 16 37  1  0
 17 38  1  0
M  END
>  <meeko>  (2)
{"is_sidechain": false}

>  <source_group>  (2)
CHRFAM7A at A face

>  <source_system>  (2)
CHRNA7_encenicline

>  <source_run>  (2)
hybrid_A_face_seed4409_ex32

>  <source_seed>  (2)
4409

>  <vina_pose_rank>  (2)
2

>  <vina_affinity_kcal_mol>  (2)
-7.5209999999999999

>  <vina_rmsd_to_crystal_angstrom>  (2)
4.4812000000000003

$$$$
CHRNA7_encenicline__hybrid_A_face_seed4409_ex32__pose03
     RDKit          3D

 38 41  0  0  0  0  0  0  0  0999 V2000
  142.8230  138.7830   91.1000 O   0  0  0  0  0  0  0  0  0  0  0  0
  142.6850  139.4840   90.1560 C   0  0  0  0  0  0  0  0  0  0  0  0
  141.3510  139.8160   89.6940 N   0  0  0  0  0  0  0  0  0  0  0  0
  140.1760  139.2690   90.4080 C   0  0  1  0  0  0  0  0  0  0  0  0
  139.0960  140.3600   90.5560 C   0  0  0  0  0  0  0  0  0  0  0  0
  137.8950  139.9670   89.9610 N   0  0  0  0  0  0  0  0  0  0  0  0
  137.4440  138.7920   90.5230 C   0  0  0  0  0  0  0  0  0  0  0  0
  138.4400  137.6840   90.3480 C   0  0  0  0  0  0  0  0  0  0  0  0
  139.6020  138.1600   89.6520 C   0  0  0  0  0  0  0  0  0  0  0  0
  139.1840  138.6620   88.3460 C   0  0  0  0  0  0  0  0  0  0  0  0
  138.0910  139.7760   88.5720 C   0  0  0  0  0  0  0  0  0  0  0  0
  143.9200  140.0370   89.4360 C   0  0  0  0  0  0  0  0  0  0  0  0
  144.9560  140.6810   90.0210 C   0  0  0  0  0  0  0  0  0  0  0  0
  146.0490  141.1410   89.2130 C   0  0  0  0  0  0  0  0  0  0  0  0
  147.1660  141.8030   89.6490 C   0  0  0  0  0  0  0  0  0  0  0  0
  148.1480  142.1910   88.7380 C   0  0  0  0  0  0  0  0  0  0  0  0
  147.9920  141.9030   87.3710 C   0  0  0  0  0  0  0  0  0  0  0  0
  146.8550  141.2270   86.9190 C   0  0  0  0  0  0  0  0  0  0  0  0
  146.6630  140.8620   85.1850 Cl  0  0  0  0  0  0  0  0  0  0  0  0
  145.8850  140.8440   87.8150 C   0  0  0  0  0  0  0  0  0  0  0  0
  144.2890  139.9780   87.7360 S   0  0  0  0  0  0  0  0  0  0  0  0
  141.2280  140.4010   88.9110 H   0  0  0  0  0  0  0  0  0  0  0  0
  140.5040  138.9214   91.3987 H   0  0  0  0  0  0  0  0  0  0  0  0
  138.9214  140.5490   91.6255 H   0  0  0  0  0  0  0  0  0  0  0  0
  139.4513  141.2717   90.0535 H   0  0  0  0  0  0  0  0  0  0  0  0
  137.2720  138.9522   91.5976 H   0  0  0  0  0  0  0  0  0  0  0  0
  136.5111  138.5021   90.0173 H   0  0  0  0  0  0  0  0  0  0  0  0
  138.7393  137.3063   91.3368 H   0  0  0  0  0  0  0  0  0  0  0  0
  137.9771  136.8782   89.7595 H   0  0  0  0  0  0  0  0  0  0  0  0
  140.3384  137.3507   89.5385 H   0  0  0  0  0  0  0  0  0  0  0  0
  140.0485  139.0905   87.8179 H   0  0  0  0  0  0  0  0  0  0  0  0
  138.7712  137.8429   87.7389 H   0  0  0  0  0  0  0  0  0  0  0  0
  138.4278  140.7186   88.1158 H   0  0  0  0  0  0  0  0  0  0  0  0
  137.1448  139.4623   88.1069 H   0  0  0  0  0  0  0  0  0  0  0  0
  144.9605  140.8507   91.1078 H   0  0  0  0  0  0  0  0  0  0  0  0
  147.2886  142.0288   90.7186 H   0  0  0  0  0  0  0  0  0  0  0  0
  149.0448  142.7225   89.0892 H   0  0  0  0  0  0  0  0  0  0  0  0
  148.7676  142.2107   86.6542 H   0  0  0  0  0  0  0  0  0  0  0  0
  1  2  2  0
  2  3  1  0
  3  4  1  0
  4  5  1  0
  5  6  1  0
  6  7  1  0
  7  8  1  0
  8  9  1  0
  9 10  1  0
 10 11  1  0
  2 12  1  0
 12 13  2  0
 13 14  1  0
 14 15  2  0
 15 16  1  0
 16 17  2  0
 17 18  1  0
 18 19  1  0
 18 20  2  0
 20 21  1  0
  9  4  1  0
 21 12  1  0
 11  6  1  0
 20 14  1  0
  3 22  1  0
  4 23  1  1
  5 24  1  0
  5 25  1  0
  7 26  1  0
  7 27  1  0
  8 28  1  0
  8 29  1  0
  9 30  1  0
 10 31  1  0
 10 32  1  0
 11 33  1  0
 11 34  1  0
 13 35  1  0
 15 36  1  0
 16 37  1  0
 17 38  1  0
M  END
>  <meeko>  (3)
{"is_sidechain": false}

>  <source_group>  (3)
CHRFAM7A at A face

>  <source_system>  (3)
CHRNA7_encenicline

>  <source_run>  (3)
hybrid_A_face_seed4409_ex32

>  <source_seed>  (3)
4409

>  <vina_pose_rank>  (3)
3

>  <vina_affinity_kcal_mol>  (3)
-7.4329999999999998

>  <vina_rmsd_to_crystal_angstrom>  (3)
4.9123000000000001

$$$$
CHRNA7_encenicline__hybrid_A_face_seed4409_ex32__pose04
     RDKit          3D

 38 41  0  0  0  0  0  0  0  0999 V2000
  142.1340  140.1930   90.8160 O   0  0  0  0  0  0  0  0  0  0  0  0
  142.1870  139.0280   90.6060 C   0  0  0  0  0  0  0  0  0  0  0  0
  140.9720  138.2940   90.3110 N   0  0  0  0  0  0  0  0  0  0  0  0
  139.6770  139.0100   90.2800 C   0  0  1  0  0  0  0  0  0  0  0  0
  139.3720  139.4810   88.8440 C   0  0  0  0  0  0  0  0  0  0  0  0
  138.1620  138.9530   88.3850 N   0  0  0  0  0  0  0  0  0  0  0  0
  137.1300  139.3220   89.2200 C   0  0  0  0  0  0  0  0  0  0  0  0
  137.3570  138.8310   90.6200 C   0  0  0  0  0  0  0  0  0  0  0  0
  138.6020  138.1190   90.7060 C   0  0  0  0  0  0  0  0  0  0  0  0
  138.5500  136.9880   89.7840 C   0  0  0  0  0  0  0  0  0  0  0  0
  138.2450  137.5400   88.3400 C   0  0  0  0  0  0  0  0  0  0  0  0
  143.5410  138.3120   90.6450 C   0  0  0  0  0  0  0  0  0  0  0  0
  144.6750  138.7300   90.0380 C   0  0  0  0  0  0  0  0  0  0  0  0
  145.8740  137.9510   90.1660 C   0  0  0  0  0  0  0  0  0  0  0  0
  147.0960  138.2350   89.6180 C   0  0  0  0  0  0  0  0  0  0  0  0
  148.1750  137.3760   89.8310 C   0  0  0  0  0  0  0  0  0  0  0  0
  148.0060  136.2170   90.6090 C   0  0  0  0  0  0  0  0  0  0  0  0
  146.7610  135.9210   91.1720 C   0  0  0  0  0  0  0  0  0  0  0  0
  146.5540  134.4510   92.1590 Cl  0  0  0  0  0  0  0  0  0  0  0  0
  145.6980  136.7660   90.9630 C   0  0  0  0  0  0  0  0  0  0  0  0
  143.9490  136.8260   91.4550 S   0  0  0  0  0  0  0  0  0  0  0  0
  141.0080  137.3260   90.1340 H   0  0  0  0  0  0  0  0  0  0  0  0
  139.7420  139.8740   90.9578 H   0  0  0  0  0  0  0  0  0  0  0  0
  139.3118  140.5793   88.8318 H   0  0  0  0  0  0  0  0  0  0  0  0
  140.1783  139.1293   88.1835 H   0  0  0  0  0  0  0  0  0  0  0  0
  137.0551  140.4194   89.2332 H   0  0  0  0  0  0  0  0  0  0  0  0
  136.2003  138.8721   88.8415 H   0  0  0  0  0  0  0  0  0  0  0  0
  137.3831  139.6907   91.3057 H   0  0  0  0  0  0  0  0  0  0  0  0
  136.5376  138.1512   90.8967 H   0  0  0  0  0  0  0  0  0  0  0  0
  138.7755  137.7721   91.7354 H   0  0  0  0  0  0  0  0  0  0  0  0
  139.5165  136.4628   89.7849 H   0  0  0  0  0  0  0  0  0  0  0  0
  137.7648  136.2826   90.0936 H   0  0  0  0  0  0  0  0  0  0  0  0
  139.0520  137.2413   87.6548 H   0  0  0  0  0  0  0  0  0  0  0  0
  137.2903  137.1268   87.9825 H   0  0  0  0  0  0  0  0  0  0  0  0
  144.6786  139.6600   89.4506 H   0  0  0  0  0  0  0  0  0  0  0  0
  147.2275  139.1415   89.0090 H   0  0  0  0  0  0  0  0  0  0  0  0
  149.1566  137.6054   89.3908 H   0  0  0  0  0  0  0  0  0  0  0  0
  148.8571  135.5402   90.7754 H   0  0  0  0  0  0  0  0  0  0  0  0
  1  2  2  0
  2  3  1  0
  3  4  1  0
  4  5  1  0
  5  6  1  0
  6  7  1  0
  7  8  1  0
  8  9  1  0
  9 10  1  0
 10 11  1  0
  2 12  1  0
 12 13  2  0
 13 14  1  0
 14 15  2  0
 15 16  1  0
 16 17  2  0
 17 18  1  0
 18 19  1  0
 18 20  2  0
 20 21  1  0
  9  4  1  0
 21 12  1  0
 11  6  1  0
 20 14  1  0
  3 22  1  0
  4 23  1  1
  5 24  1  0
  5 25  1  0
  7 26  1  0
  7 27  1  0
  8 28  1  0
  8 29  1  0
  9 30  1  0
 10 31  1  0
 10 32  1  0
 11 33  1  0
 11 34  1  0
 13 35  1  0
 15 36  1  0
 16 37  1  0
 17 38  1  0
M  END
>  <meeko>  (4)
{"is_sidechain": false}

>  <source_group>  (4)
CHRFAM7A at A face

>  <source_system>  (4)
CHRNA7_encenicline

>  <source_run>  (4)
hybrid_A_face_seed4409_ex32

>  <source_seed>  (4)
4409

>  <vina_pose_rank>  (4)
4

>  <vina_affinity_kcal_mol>  (4)
-7.3730000000000002

>  <vina_rmsd_to_crystal_angstrom>  (4)
2.5657999999999999

$$$$
CHRNA7_encenicline__hybrid_A_face_seed4409_ex32__pose05
     RDKit          3D

 38 41  0  0  0  0  0  0  0  0999 V2000
  144.8100  139.7430   91.3400 O   0  0  0  0  0  0  0  0  0  0  0  0
  144.3100  138.6740   91.2350 C   0  0  0  0  0  0  0  0  0  0  0  0
  145.0910  137.4840   91.5110 N   0  0  0  0  0  0  0  0  0  0  0  0
  146.5080  137.6210   91.9180 C   0  0  1  0  0  0  0  0  0  0  0  0
  146.9850  136.3250   92.6040 C   0  0  0  0  0  0  0  0  0  0  0  0
  148.0800  135.7720   91.9340 N   0  0  0  0  0  0  0  0  0  0  0  0
  149.1180  136.6760   91.8830 C   0  0  0  0  0  0  0  0  0  0  0  0
  148.7150  137.9330   91.1690 C   0  0  0  0  0  0  0  0  0  0  0  0
  147.3460  137.8510   90.7450 C   0  0  0  0  0  0  0  0  0  0  0  0
  147.2080  136.7040   89.8500 C   0  0  0  0  0  0  0  0  0  0  0  0
  147.7030  135.4180   90.6150 C   0  0  0  0  0  0  0  0  0  0  0  0
  142.8410  138.5620   90.8130 C   0  0  0  0  0  0  0  0  0  0  0  0
  142.1000  137.4300   90.8210 C   0  0  0  0  0  0  0  0  0  0  0  0
  140.7290  137.4810   90.3960 C   0  0  0  0  0  0  0  0  0  0  0  0
  139.8500  136.4330   90.3480 C   0  0  0  0  0  0  0  0  0  0  0  0
  138.5410  136.6380   89.9090 C   0  0  0  0  0  0  0  0  0  0  0  0
  138.1260  137.9220   89.5160 C   0  0  0  0  0  0  0  0  0  0  0  0
  139.0190  138.9970   89.5640 C   0  0  0  0  0  0  0  0  0  0  0  0
  138.4850  140.6240   89.0670 Cl  0  0  0  0  0  0  0  0  0  0  0  0
  140.3080  138.7970   89.9960 C   0  0  0  0  0  0  0  0  0  0  0  0
  141.7900  139.8230   90.2330 S   0  0  0  0  0  0  0  0  0  0  0  0
  144.6830  136.5920   91.4290 H   0  0  0  0  0  0  0  0  0  0  0  0
  146.5887  138.4706   92.6121 H   0  0  0  0  0  0  0  0  0  0  0  0
  147.2762  136.5536   93.6398 H   0  0  0  0  0  0  0  0  0  0  0  0
  146.1607  135.5969   92.5845 H   0  0  0  0  0  0  0  0  0  0  0  0
  149.4227  136.9293   92.9092 H   0  0  0  0  0  0  0  0  0  0  0  0
  149.9507  136.2160   91.3308 H   0  0  0  0  0  0  0  0  0  0  0  0
  148.8331  138.7897   91.8488 H   0  0  0  0  0  0  0  0  0  0  0  0
  149.3554  138.0615   90.2839 H   0  0  0  0  0  0  0  0  0  0  0  0
  147.0471  138.7788   90.2352 H   0  0  0  0  0  0  0  0  0  0  0  0
  146.1536  136.5823   89.5610 H   0  0  0  0  0  0  0  0  0  0  0  0
  147.8070  136.8584   88.9404 H   0  0  0  0  0  0  0  0  0  0  0  0
  146.8907  134.6772   90.6516 H   0  0  0  0  0  0  0  0  0  0  0  0
  148.5673  134.9868   90.0886 H   0  0  0  0  0  0  0  0  0  0  0  0
  142.5437  136.4788   91.1501 H   0  0  0  0  0  0  0  0  0  0  0  0
  140.1754  135.4283   90.6557 H   0  0  0  0  0  0  0  0  0  0  0  0
  137.8349  135.7954   89.8706 H   0  0  0  0  0  0  0  0  0  0  0  0
  137.0944  138.0820   89.1692 H   0  0  0  0  0  0  0  0  0  0  0  0
  1  2  2  0
  2  3  1  0
  3  4  1  0
  4  5  1  0
  5  6  1  0
  6  7  1  0
  7  8  1  0
  8  9  1  0
  9 10  1  0
 10 11  1  0
  2 12  1  0
 12 13  2  0
 13 14  1  0
 14 15  2  0
 15 16  1  0
 16 17  2  0
 17 18  1  0
 18 19  1  0
 18 20  2  0
 20 21  1  0
  9  4  1  0
 21 12  1  0
 11  6  1  0
 20 14  1  0
  3 22  1  0
  4 23  1  1
  5 24  1  0
  5 25  1  0
  7 26  1  0
  7 27  1  0
  8 28  1  0
  8 29  1  0
  9 30  1  0
 10 31  1  0
 10 32  1  0
 11 33  1  0
 11 34  1  0
 13 35  1  0
 15 36  1  0
 16 37  1  0
 17 38  1  0
M  END
>  <meeko>  (5)
{"is_sidechain": false}

>  <source_group>  (5)
CHRFAM7A at A face

>  <source_system>  (5)
CHRNA7_encenicline

>  <source_run>  (5)
hybrid_A_face_seed4409_ex32

>  <source_seed>  (5)
4409

>  <vina_pose_rank>  (5)
5

>  <vina_affinity_kcal_mol>  (5)
-6.5369999999999999

>  <vina_rmsd_to_crystal_angstrom>  (5)
7.6376999999999997

$$$$
CHRNA7_encenicline__hybrid_A_face_seed4409_ex32__pose06
     RDKit          3D

 38 41  0  0  0  0  0  0  0  0999 V2000
  144.2820  141.9990   92.6490 O   0  0  0  0  0  0  0  0  0  0  0  0
  143.9040  141.0450   93.2400 C   0  0  0  0  0  0  0  0  0  0  0  0
  142.9250  141.1960   94.2990 N   0  0  0  0  0  0  0  0  0  0  0  0
  142.4130  142.5450   94.6320 C   0  0  1  0  0  0  0  0  0  0  0  0
  140.9130  142.6360   94.2910 C   0  0  0  0  0  0  0  0  0  0  0  0
  140.1560  142.9620   95.4190 N   0  0  0  0  0  0  0  0  0  0  0  0
  140.5820  144.1600   95.9520 C   0  0  0  0  0  0  0  0  0  0  0  0
  142.0250  144.0970   96.3560 C   0  0  0  0  0  0  0  0  0  0  0  0
  142.5730  142.8020   96.0600 C   0  0  0  0  0  0  0  0  0  0  0  0
  141.8070  141.7990   96.7960 C   0  0  0  0  0  0  0  0  0  0  0  0
  140.2900  141.9430   96.3930 C   0  0  0  0  0  0  0  0  0  0  0  0
  144.4500  139.6610   92.8740 C   0  0  0  0  0  0  0  0  0  0  0  0
  143.7080  138.5780   92.5460 C   0  0  0  0  0  0  0  0  0  0  0  0
  144.3650  137.3430   92.2240 C   0  0  0  0  0  0  0  0  0  0  0  0
  143.7620  136.1650   91.8720 C   0  0  0  0  0  0  0  0  0  0  0  0
  144.5380  135.0410   91.5870 C   0  0  0  0  0  0  0  0  0  0  0  0
  145.9400  135.1180   91.6620 C   0  0  0  0  0  0  0  0  0  0  0  0
  146.5610  136.3180   92.0190 C   0  0  0  0  0  0  0  0  0  0  0  0
  148.3400  136.4100   92.1100 Cl  0  0  0  0  0  0  0  0  0  0  0  0
  145.7990  137.4260   92.3010 C   0  0  0  0  0  0  0  0  0  0  0  0
  146.1120  139.1480   92.7920 S   0  0  0  0  0  0  0  0  0  0  0  0
  142.6040  140.4080   94.7940 H   0  0  0  0  0  0  0  0  0  0  0  0
  142.9805  143.2854   94.0491 H   0  0  0  0  0  0  0  0  0  0  0  0
  140.7660  143.4110   93.5243 H   0  0  0  0  0  0  0  0  0  0  0  0
  140.5805  141.6550   93.9207 H   0  0  0  0  0  0  0  0  0  0  0  0
  140.4554  144.9519   95.1991 H   0  0  0  0  0  0  0  0  0  0  0  0
  139.9807  144.3735   96.8480 H   0  0  0  0  0  0  0  0  0  0  0  0
  142.5893  144.8637   95.8049 H   0  0  0  0  0  0  0  0  0  0  0  0
  142.1001  144.2768   97.4386 H   0  0  0  0  0  0  0  0  0  0  0  0
  143.6357  142.7616   96.3410 H   0  0  0  0  0  0  0  0  0  0  0  0
  142.1669  140.7922   96.5373 H   0  0  0  0  0  0  0  0  0  0  0  0
  141.9279  141.9486   97.8791 H   0  0  0  0  0  0  0  0  0  0  0  0
  139.9283  140.9901   95.9792 H   0  0  0  0  0  0  0  0  0  0  0  0
  139.6973  142.2046   97.2819 H   0  0  0  0  0  0  0  0  0  0  0  0
  142.6101  138.6435   92.5263 H   0  0  0  0  0  0  0  0  0  0  0  0
  142.6652  136.1048   91.8139 H   0  0  0  0  0  0  0  0  0  0  0  0
  144.0532  134.0951   91.3038 H   0  0  0  0  0  0  0  0  0  0  0  0
  146.5503  134.2304   91.4389 H   0  0  0  0  0  0  0  0  0  0  0  0
  1  2  2  0
  2  3  1  0
  3  4  1  0
  4  5  1  0
  5  6  1  0
  6  7  1  0
  7  8  1  0
  8  9  1  0
  9 10  1  0
 10 11  1  0
  2 12  1  0
 12 13  2  0
 13 14  1  0
 14 15  2  0
 15 16  1  0
 16 17  2  0
 17 18  1  0
 18 19  1  0
 18 20  2  0
 20 21  1  0
  9  4  1  0
 21 12  1  0
 11  6  1  0
 20 14  1  0
  3 22  1  0
  4 23  1  6
  5 24  1  0
  5 25  1  0
  7 26  1  0
  7 27  1  0
  8 28  1  0
  8 29  1  0
  9 30  1  0
 10 31  1  0
 10 32  1  0
 11 33  1  0
 11 34  1  0
 13 35  1  0
 15 36  1  0
 16 37  1  0
 17 38  1  0
M  END
>  <meeko>  (6)
{"is_sidechain": false}

>  <source_group>  (6)
CHRFAM7A at A face

>  <source_system>  (6)
CHRNA7_encenicline

>  <source_run>  (6)
hybrid_A_face_seed4409_ex32

>  <source_seed>  (6)
4409

>  <vina_pose_rank>  (6)
6

>  <vina_affinity_kcal_mol>  (6)
-6.3840000000000003

>  <vina_rmsd_to_crystal_angstrom>  (6)
4.9245000000000001

$$$$
CHRNA7_encenicline__hybrid_A_face_seed4409_ex32__pose07
     RDKit          3D

 38 41  0  0  0  0  0  0  0  0999 V2000
  144.4110  140.2860   90.4120 O   0  0  0  0  0  0  0  0  0  0  0  0
  144.0320  139.1790   90.5940 C   0  0  0  0  0  0  0  0  0  0  0  0
  144.9830  138.1390   90.9340 N   0  0  0  0  0  0  0  0  0  0  0  0
  146.4210  138.4740   91.0470 C   0  0  1  0  0  0  0  0  0  0  0  0
  147.0720  137.6290   92.1590 C   0  0  0  0  0  0  0  0  0  0  0  0
  148.1270  136.8610   91.6590 N   0  0  0  0  0  0  0  0  0  0  0  0
  149.0780  137.6730   91.0800 C   0  0  0  0  0  0  0  0  0  0  0  0
  148.5000  138.4720   89.9490 C   0  0  0  0  0  0  0  0  0  0  0  0
  147.1030  138.1790   89.7900 C   0  0  0  0  0  0  0  0  0  0  0  0
  146.9600  136.7510   89.5150 C   0  0  0  0  0  0  0  0  0  0  0  0
  147.6370  135.9510   90.6910 C   0  0  0  0  0  0  0  0  0  0  0  0
  142.5380  138.8600   90.4700 C   0  0  0  0  0  0  0  0  0  0  0  0
  141.5630  139.7430   90.1540 C   0  0  0  0  0  0  0  0  0  0  0  0
  140.2030  139.2950   90.0740 C   0  0  0  0  0  0  0  0  0  0  0  0
  139.1070  140.0570   89.7650 C   0  0  0  0  0  0  0  0  0  0  0  0
  137.8390  139.4760   89.7270 C   0  0  0  0  0  0  0  0  0  0  0  0
  137.6860  138.1070   90.0060 C   0  0  0  0  0  0  0  0  0  0  0  0
  138.8000  137.3230   90.3200 C   0  0  0  0  0  0  0  0  0  0  0  0
  138.5990  135.5860   90.6700 Cl  0  0  0  0  0  0  0  0  0  0  0  0
  140.0490  137.8930   90.3580 C   0  0  0  0  0  0  0  0  0  0  0  0
  141.7430  137.3280   90.7000 S   0  0  0  0  0  0  0  0  0  0  0  0
  144.6750  137.2170   91.0890 H   0  0  0  0  0  0  0  0  0  0  0  0
  146.5104  139.5446   91.2832 H   0  0  0  0  0  0  0  0  0  0  0  0
  147.4563  138.3003   92.9411 H   0  0  0  0  0  0  0  0  0  0  0  0
  146.3111  136.9493   92.5702 H   0  0  0  0  0  0  0  0  0  0  0  0
  149.4712  138.3628   91.8413 H   0  0  0  0  0  0  0  0  0  0  0  0
  149.8801  137.0357   90.6794 H   0  0  0  0  0  0  0  0  0  0  0  0
  148.6232  139.5440   90.1628 H   0  0  0  0  0  0  0  0  0  0  0  0
  149.0273  138.2080   89.0204 H   0  0  0  0  0  0  0  0  0  0  0  0
  146.6765  138.7764   88.9707 H   0  0  0  0  0  0  0  0  0  0  0  0
  145.8935  136.4892   89.4526 H   0  0  0  0  0  0  0  0  0  0  0  0
  147.4414  136.4990   88.5586 H   0  0  0  0  0  0  0  0  0  0  0  0
  146.8955  135.2848   91.1560 H   0  0  0  0  0  0  0  0  0  0  0  0
  148.4704  135.3519   90.2954 H   0  0  0  0  0  0  0  0  0  0  0  0
  141.8115  140.7968   89.9599 H   0  0  0  0  0  0  0  0  0  0  0  0
  139.2269  141.1284   89.5466 H   0  0  0  0  0  0  0  0  0  0  0  0
  136.9599  140.0888   89.4789 H   0  0  0  0  0  0  0  0  0  0  0  0
  136.6856  137.6506   89.9772 H   0  0  0  0  0  0  0  0  0  0  0  0
  1  2  2  0
  2  3  1  0
  3  4  1  0
  4  5  1  0
  5  6  1  0
  6  7  1  0
  7  8  1  0
  8  9  1  0
  9 10  1  0
 10 11  1  0
  2 12  1  0
 12 13  2  0
 13 14  1  0
 14 15  2  0
 15 16  1  0
 16 17  2  0
 17 18  1  0
 18 19  1  0
 18 20  2  0
 20 21  1  0
  9  4  1  0
 21 12  1  0
 11  6  1  0
 20 14  1  0
  3 22  1  0
  4 23  1  1
  5 24  1  0
  5 25  1  0
  7 26  1  0
  7 27  1  0
  8 28  1  0
  8 29  1  0
  9 30  1  0
 10 31  1  0
 10 32  1  0
 11 33  1  0
 11 34  1  0
 13 35  1  0
 15 36  1  0
 16 37  1  0
 17 38  1  0
M  END
>  <meeko>  (7)
{"is_sidechain": false}

>  <source_group>  (7)
CHRFAM7A at A face

>  <source_system>  (7)
CHRNA7_encenicline

>  <source_run>  (7)
hybrid_A_face_seed4409_ex32

>  <source_seed>  (7)
4409

>  <vina_pose_rank>  (7)
7

>  <vina_affinity_kcal_mol>  (7)
-6.3540000000000001

>  <vina_rmsd_to_crystal_angstrom>  (7)
7.5803000000000003

$$$$
CHRNA7_encenicline__hybrid_A_face_seed4409_ex32__pose08
     RDKit          3D

 38 41  0  0  0  0  0  0  0  0999 V2000
  143.9070  140.8630   91.3690 O   0  0  0  0  0  0  0  0  0  0  0  0
  143.7020  140.1320   90.4600 C   0  0  0  0  0  0  0  0  0  0  0  0
  144.6710  140.0280   89.3860 N   0  0  0  0  0  0  0  0  0  0  0  0
  145.9060  140.8430   89.4380 C   0  0  1  0  0  0  0  0  0  0  0  0
  147.0340  140.0430   90.1200 C   0  0  0  0  0  0  0  0  0  0  0  0
  148.1370  139.9010   89.2740 N   0  0  0  0  0  0  0  0  0  0  0  0
  148.6120  141.1380   88.8940 C   0  0  0  0  0  0  0  0  0  0  0  0
  147.5630  141.9290   88.1710 C   0  0  0  0  0  0  0  0  0  0  0  0
  146.3400  141.1800   88.0860 C   0  0  0  0  0  0  0  0  0  0  0  0
  146.6100  139.9380   87.3660 C   0  0  0  0  0  0  0  0  0  0  0  0
  147.7610  139.1700   88.1200 C   0  0  0  0  0  0  0  0  0  0  0  0
  142.4150  139.3010   90.4320 C   0  0  0  0  0  0  0  0  0  0  0  0
  142.3380  137.9560   90.5560 C   0  0  0  0  0  0  0  0  0  0  0  0
  141.0550  137.3140   90.5120 C   0  0  0  0  0  0  0  0  0  0  0  0
  140.8090  135.9710   90.6230 C   0  0  0  0  0  0  0  0  0  0  0  0
  139.4990  135.4940   90.5590 C   0  0  0  0  0  0  0  0  0  0  0  0
  138.4320  136.3910   90.3810 C   0  0  0  0  0  0  0  0  0  0  0  0
  138.6770  137.7630   90.2680 C   0  0  0  0  0  0  0  0  0  0  0  0
  137.3190  138.8970   90.0440 Cl  0  0  0  0  0  0  0  0  0  0  0  0
  139.9660  138.2360   90.3300 C   0  0  0  0  0  0  0  0  0  0  0  0
  140.7780  139.8600   90.2400 S   0  0  0  0  0  0  0  0  0  0  0  0
  144.5080  139.4210   88.6290 H   0  0  0  0  0  0  0  0  0  0  0  0
  145.6928  141.7604   90.0062 H   0  0  0  0  0  0  0  0  0  0  0  0
  147.3475  140.5716   91.0323 H   0  0  0  0  0  0  0  0  0  0  0  0
  146.6513  139.0409   90.3638 H   0  0  0  0  0  0  0  0  0  0  0  0
  148.9234  141.6928   89.7913 H   0  0  0  0  0  0  0  0  0  0  0  0
  149.4626  140.9877   88.2130 H   0  0  0  0  0  0  0  0  0  0  0  0
  147.3767  142.8665   88.7155 H   0  0  0  0  0  0  0  0  0  0  0  0
  147.9191  142.1470   87.1533 H   0  0  0  0  0  0  0  0  0  0  0  0
  145.5658  141.7666   87.5697 H   0  0  0  0  0  0  0  0  0  0  0  0
  145.7023  139.3172   87.3417 H   0  0  0  0  0  0  0  0  0  0  0  0
  146.9146  140.1575   86.3320 H   0  0  0  0  0  0  0  0  0  0  0  0
  147.4035  138.1731   88.4174 H   0  0  0  0  0  0  0  0  0  0  0  0
  148.6295  139.0633   87.4535 H   0  0  0  0  0  0  0  0  0  0  0  0
  143.2520  137.3587   90.6896 H   0  0  0  0  0  0  0  0  0  0  0  0
  141.6439  135.2686   90.7626 H   0  0  0  0  0  0  0  0  0  0  0  0
  139.3016  134.4155   90.6479 H   0  0  0  0  0  0  0  0  0  0  0  0
  137.4004  136.0125   90.3304 H   0  0  0  0  0  0  0  0  0  0  0  0
  1  2  2  0
  2  3  1  0
  3  4  1  0
  4  5  1  0
  5  6  1  0
  6  7  1  0
  7  8  1  0
  8  9  1  0
  9 10  1  0
 10 11  1  0
  2 12  1  0
 12 13  2  0
 13 14  1  0
 14 15  2  0
 15 16  1  0
 16 17  2  0
 17 18  1  0
 18 19  1  0
 18 20  2  0
 20 21  1  0
  9  4  1  0
 21 12  1  0
 11  6  1  0
 20 14  1  0
  3 22  1  0
  4 23  1  1
  5 24  1  0
  5 25  1  0
  7 26  1  0
  7 27  1  0
  8 28  1  0
  8 29  1  0
  9 30  1  0
 10 31  1  0
 10 32  1  0
 11 33  1  0
 11 34  1  0
 13 35  1  0
 15 36  1  0
 16 37  1  0
 17 38  1  0
M  END
>  <meeko>  (8)
{"is_sidechain": false}

>  <source_group>  (8)
CHRFAM7A at A face

>  <source_system>  (8)
CHRNA7_encenicline

>  <source_run>  (8)
hybrid_A_face_seed4409_ex32

>  <source_seed>  (8)
4409

>  <vina_pose_rank>  (8)
8

>  <vina_affinity_kcal_mol>  (8)
-6.3250000000000002

>  <vina_rmsd_to_crystal_angstrom>  (8)
6.7858999999999998

$$$$
CHRNA7_encenicline__hybrid_A_face_seed4409_ex32__pose09
     RDKit          3D

 38 41  0  0  0  0  0  0  0  0999 V2000
  146.2560  140.4980   92.4340 O   0  0  0  0  0  0  0  0  0  0  0  0
  145.1850  139.9960   92.4720 C   0  0  0  0  0  0  0  0  0  0  0  0
  145.0030  138.6480   91.9680 N   0  0  0  0  0  0  0  0  0  0  0  0
  146.1620  137.9180   91.4070 C   0  0  1  0  0  0  0  0  0  0  0  0
  146.6680  136.8750   92.4240 C   0  0  0  0  0  0  0  0  0  0  0  0
  146.6330  135.5860   91.8860 N   0  0  0  0  0  0  0  0  0  0  0  0
  147.3970  135.5230   90.7410 C   0  0  0  0  0  0  0  0  0  0  0  0
  146.9020  136.4810   89.6990 C   0  0  0  0  0  0  0  0  0  0  0  0
  145.7690  137.2150   90.1900 C   0  0  0  0  0  0  0  0  0  0  0  0
  144.7160  136.2620   90.5290 C   0  0  0  0  0  0  0  0  0  0  0  0
  145.2960  135.2350   91.5750 C   0  0  0  0  0  0  0  0  0  0  0  0
  144.0020  140.7750   93.0580 C   0  0  0  0  0  0  0  0  0  0  0  0
  142.8980  141.1660   92.3800 C   0  0  0  0  0  0  0  0  0  0  0  0
  141.8680  141.8910   93.0670 C   0  0  0  0  0  0  0  0  0  0  0  0
  140.6960  142.3530   92.5290 C   0  0  0  0  0  0  0  0  0  0  0  0
  139.7870  143.0470   93.3280 C   0  0  0  0  0  0  0  0  0  0  0  0
  140.0730  143.2730   94.6850 C   0  0  0  0  0  0  0  0  0  0  0  0
  141.2670  142.8030   95.2410 C   0  0  0  0  0  0  0  0  0  0  0  0
  141.6240  143.0910   96.9640 Cl  0  0  0  0  0  0  0  0  0  0  0  0
  142.1640  142.1190   94.4560 C   0  0  0  0  0  0  0  0  0  0  0  0
  143.7880  141.3370   94.6920 S   0  0  0  0  0  0  0  0  0  0  0  0
  144.1160  138.2230   91.9980 H   0  0  0  0  0  0  0  0  0  0  0  0
  146.9553  138.6463   91.1829 H   0  0  0  0  0  0  0  0  0  0  0  0
  147.7036  137.1192   92.7032 H   0  0  0  0  0  0  0  0  0  0  0  0
  146.0116  136.9020   93.3063 H   0  0  0  0  0  0  0  0  0  0  0  0
  148.4384  135.7735   90.9915 H   0  0  0  0  0  0  0  0  0  0  0  0
  147.3275  134.5033   90.3344 H   0  0  0  0  0  0  0  0  0  0  0  0
  147.7069  137.1857   89.4432 H   0  0  0  0  0  0  0  0  0  0  0  0
  146.5991  135.9125   88.8074 H   0  0  0  0  0  0  0  0  0  0  0  0
  145.4162  137.9292   89.4314 H   0  0  0  0  0  0  0  0  0  0  0  0
  143.8590  136.7948   90.9667 H   0  0  0  0  0  0  0  0  0  0  0  0
  144.3783  135.7330   89.6256 H   0  0  0  0  0  0  0  0  0  0  0  0
  144.6872  135.2603   92.4908 H   0  0  0  0  0  0  0  0  0  0  0  0
  145.2715  134.2216   91.1480 H   0  0  0  0  0  0  0  0  0  0  0  0
  142.7912  140.9299   91.3110 H   0  0  0  0  0  0  0  0  0  0  0  0
  140.4715  142.1767   91.4667 H   0  0  0  0  0  0  0  0  0  0  0  0
  138.8459  143.4175   92.8954 H   0  0  0  0  0  0  0  0  0  0  0  0
  139.3551  143.8216   95.3123 H   0  0  0  0  0  0  0  0  0  0  0  0
  1  2  2  0
  2  3  1  0
  3  4  1  0
  4  5  1  0
  5  6  1  0
  6  7  1  0
  7  8  1  0
  8  9  1  0
  9 10  1  0
 10 11  1  0
  2 12  1  0
 12 13  2  0
 13 14  1  0
 14 15  2  0
 15 16  1  0
 16 17  2  0
 17 18  1  0
 18 19  1  0
 18 20  2  0
 20 21  1  0
  9  4  1  0
 21 12  1  0
 11  6  1  0
 20 14  1  0
  3 22  1  0
  4 23  1  6
  5 24  1  0
  5 25  1  0
  7 26  1  0
  7 27  1  0
  8 28  1  0
  8 29  1  0
  9 30  1  0
 10 31  1  0
 10 32  1  0
 11 33  1  0
 11 34  1  0
 13 35  1  0
 15 36  1  0
 16 37  1  0
 17 38  1  0
M  END
>  <meeko>  (9)
{"is_sidechain": false}

>  <source_group>  (9)
CHRFAM7A at A face

>  <source_system>  (9)
CHRNA7_encenicline

>  <source_run>  (9)
hybrid_A_face_seed4409_ex32

>  <source_seed>  (9)
4409

>  <vina_pose_rank>  (9)
9

>  <vina_affinity_kcal_mol>  (9)
-6.3129999999999997

>  <vina_rmsd_to_crystal_angstrom>  (9)
7.8305999999999996

$$$$
CHRNA7_encenicline__hybrid_A_face_seed4409_ex32__pose10
     RDKit          3D

 38 41  0  0  0  0  0  0  0  0999 V2000
  144.7480  138.9630   91.6850 O   0  0  0  0  0  0  0  0  0  0  0  0
  144.1780  139.1360   90.6610 C   0  0  0  0  0  0  0  0  0  0  0  0
  144.8840  139.7060   89.5310 N   0  0  0  0  0  0  0  0  0  0  0  0
  146.3130  140.0690   89.6720 C   0  0  1  0  0  0  0  0  0  0  0  0
  147.1940  139.0240   88.9590 C   0  0  0  0  0  0  0  0  0  0  0  0
  147.9830  139.6160   87.9700 N   0  0  0  0  0  0  0  0  0  0  0  0
  148.7820  140.5960   88.5180 C   0  0  0  0  0  0  0  0  0  0  0  0
  147.9620  141.6690   89.1710 C   0  0  0  0  0  0  0  0  0  0  0  0
  146.5620  141.3700   89.0570 C   0  0  0  0  0  0  0  0  0  0  0  0
  146.2240  141.2800   87.6390 C   0  0  0  0  0  0  0  0  0  0  0  0
  147.1510  140.1910   86.9780 C   0  0  0  0  0  0  0  0  0  0  0  0
  142.6990  138.7510   90.5430 C   0  0  0  0  0  0  0  0  0  0  0  0
  141.6820  139.5960   90.2560 C   0  0  0  0  0  0  0  0  0  0  0  0
  140.3430  139.0870   90.1760 C   0  0  0  0  0  0  0  0  0  0  0  0
  139.2110  139.8050   89.8950 C   0  0  0  0  0  0  0  0  0  0  0  0
  137.9710  139.1670   89.8540 C   0  0  0  0  0  0  0  0  0  0  0  0
  137.8820  137.7860   90.1020 C   0  0  0  0  0  0  0  0  0  0  0  0
  139.0340  137.0470   90.3880 C   0  0  0  0  0  0  0  0  0  0  0  0
  138.9160  135.2960   90.6990 Cl  0  0  0  0  0  0  0  0  0  0  0  0
  140.2570  137.6740   90.4290 C   0  0  0  0  0  0  0  0  0  0  0  0
  141.9780  137.1800   90.7430 S   0  0  0  0  0  0  0  0  0  0  0  0
  144.4180  139.8510   88.6760 H   0  0  0  0  0  0  0  0  0  0  0  0
  146.5571  140.1042   90.7440 H   0  0  0  0  0  0  0  0  0  0  0  0
  147.8493  138.5423   89.6997 H   0  0  0  0  0  0  0  0  0  0  0  0
  146.5363  138.2829   88.4814 H   0  0  0  0  0  0  0  0  0  0  0  0
  149.4410  140.1405   89.2718 H   0  0  0  0  0  0  0  0  0  0  0  0
  149.3714  141.0541   87.7100 H   0  0  0  0  0  0  0  0  0  0  0  0
  148.2329  141.7348   90.2351 H   0  0  0  0  0  0  0  0  0  0  0  0
  148.1638  142.6268   88.6690 H   0  0  0  0  0  0  0  0  0  0  0  0
  145.9620  142.1494   89.5496 H   0  0  0  0  0  0  0  0  0  0  0  0
  145.1692  140.9891   87.5257 H   0  0  0  0  0  0  0  0  0  0  0  0
  146.3755  142.2539   87.1506 H   0  0  0  0  0  0  0  0  0  0  0  0
  146.5285  139.4072   86.5217 H   0  0  0  0  0  0  0  0  0  0  0  0
  147.7744  140.6607   86.2029 H   0  0  0  0  0  0  0  0  0  0  0  0
  141.8802  140.6645   90.0854 H   0  0  0  0  0  0  0  0  0  0  0  0
  139.2796  140.8857   89.7015 H   0  0  0  0  0  0  0  0  0  0  0  0
  137.0627  139.7446   89.6276 H   0  0  0  0  0  0  0  0  0  0  0  0
  136.9030  137.2853   90.0709 H   0  0  0  0  0  0  0  0  0  0  0  0
  1  2  2  0
  2  3  1  0
  3  4  1  0
  4  5  1  0
  5  6  1  0
  6  7  1  0
  7  8  1  0
  8  9  1  0
  9 10  1  0
 10 11  1  0
  2 12  1  0
 12 13  2  0
 13 14  1  0
 14 15  2  0
 15 16  1  0
 16 17  2  0
 17 18  1  0
 18 19  1  0
 18 20  2  0
 20 21  1  0
  9  4  1  0
 21 12  1  0
 11  6  1  0
 20 14  1  0
  3 22  1  0
  4 23  1  1
  5 24  1  0
  5 25  1  0
  7 26  1  0
  7 27  1  0
  8 28  1  0
  8 29  1  0
  9 30  1  0
 10 31  1  0
 10 32  1  0
 11 33  1  0
 11 34  1  0
 13 35  1  0
 15 36  1  0
 16 37  1  0
 17 38  1  0
M  END
>  <meeko>  (10)
{"is_sidechain": false}

>  <source_group>  (10)
CHRFAM7A at A face

>  <source_system>  (10)
CHRNA7_encenicline

>  <source_run>  (10)
hybrid_A_face_seed4409_ex32

>  <source_seed>  (10)
4409

>  <vina_pose_rank>  (10)
10

>  <vina_affinity_kcal_mol>  (10)
-6.2969999999999997

>  <vina_rmsd_to_crystal_angstrom>  (10)
6.9939999999999998

$$$$
CHRNA7_encenicline__hybrid_A_face_seed4409_ex32__pose11
     RDKit          3D

 38 41  0  0  0  0  0  0  0  0999 V2000
  146.1020  140.3120   93.0600 O   0  0  0  0  0  0  0  0  0  0  0  0
  145.0120  139.8710   92.9240 C   0  0  0  0  0  0  0  0  0  0  0  0
  144.8190  138.6450   92.1740 N   0  0  0  0  0  0  0  0  0  0  0  0
  145.9910  137.9600   91.5840 C   0  0  1  0  0  0  0  0  0  0  0  0
  146.5090  136.8770   92.5510 C   0  0  0  0  0  0  0  0  0  0  0  0
  146.4960  135.6150   91.9510 N   0  0  0  0  0  0  0  0  0  0  0  0
  147.2650  135.6190   90.8080 C   0  0  0  0  0  0  0  0  0  0  0  0
  146.7590  136.6190   89.8110 C   0  0  0  0  0  0  0  0  0  0  0  0
  145.6130  137.3110   90.3320 C   0  0  0  0  0  0  0  0  0  0  0  0
  144.5730  136.3270   90.6210 C   0  0  0  0  0  0  0  0  0  0  0  0
  145.1660  135.2600   91.6180 C   0  0  0  0  0  0  0  0  0  0  0  0
  143.8160  140.6010   93.5460 C   0  0  0  0  0  0  0  0  0  0  0  0
  143.5020  140.6270   94.8620 C   0  0  0  0  0  0  0  0  0  0  0  0
  142.3470  141.3580   95.2970 C   0  0  0  0  0  0  0  0  0  0  0  0
  141.8970  141.4840   96.5850 C   0  0  0  0  0  0  0  0  0  0  0  0
  140.7500  142.2310   96.8550 C   0  0  0  0  0  0  0  0  0  0  0  0
  140.0560  142.8550   95.8040 C   0  0  0  0  0  0  0  0  0  0  0  0
  140.5100  142.7320   94.4880 C   0  0  0  0  0  0  0  0  0  0  0  0
  139.6260  143.5280   93.1600 Cl  0  0  0  0  0  0  0  0  0  0  0  0
  141.6390  141.9960   94.2200 C   0  0  0  0  0  0  0  0  0  0  0  0
  142.5990  141.5500   92.7420 S   0  0  0  0  0  0  0  0  0  0  0  0
  143.9160  138.2710   92.0580 H   0  0  0  0  0  0  0  0  0  0  0  0
  146.7743  138.7100   91.3995 H   0  0  0  0  0  0  0  0  0  0  0  0
  147.5396  137.1231   92.8464 H   0  0  0  0  0  0  0  0  0  0  0  0
  145.8488  136.8511   93.4305 H   0  0  0  0  0  0  0  0  0  0  0  0
  148.3015  135.8729   91.0749 H   0  0  0  0  0  0  0  0  0  0  0  0
  147.2128  134.6192   90.3523 H   0  0  0  0  0  0  0  0  0  0  0  0
  147.5539  137.3474   89.5931 H   0  0  0  0  0  0  0  0  0  0  0  0
  146.4682  136.0898   88.8915 H   0  0  0  0  0  0  0  0  0  0  0  0
  145.2522  138.0552   89.6068 H   0  0  0  0  0  0  0  0  0  0  0  0
  143.7069  136.8252   91.0810 H   0  0  0  0  0  0  0  0  0  0  0  0
  144.2453  135.8373   89.6921 H   0  0  0  0  0  0  0  0  0  0  0  0
  144.5541  135.2316   92.5316 H   0  0  0  0  0  0  0  0  0  0  0  0
  145.1588  134.2685   91.1418 H   0  0  0  0  0  0  0  0  0  0  0  0
  144.1272  140.0921   95.5920 H   0  0  0  0  0  0  0  0  0  0  0  0
  142.4407  140.9956   97.4071 H   0  0  0  0  0  0  0  0  0  0  0  0
  140.3892  142.3315   97.8893 H   0  0  0  0  0  0  0  0  0  0  0  0
  139.1513  143.4429   96.0183 H   0  0  0  0  0  0  0  0  0  0  0  0
  1  2  2  0
  2  3  1  0
  3  4  1  0
  4  5  1  0
  5  6  1  0
  6  7  1  0
  7  8  1  0
  8  9  1  0
  9 10  1  0
 10 11  1  0
  2 12  1  0
 12 13  2  0
 13 14  1  0
 14 15  2  0
 15 16  1  0
 16 17  2  0
 17 18  1  0
 18 19  1  0
 18 20  2  0
 20 21  1  0
  9  4  1  0
 21 12  1  0
 11  6  1  0
 20 14  1  0
  3 22  1  0
  4 23  1  6
  5 24  1  0
  5 25  1  0
  7 26  1  0
  7 27  1  0
  8 28  1  0
  8 29  1  0
  9 30  1  0
 10 31  1  0
 10 32  1  0
 11 33  1  0
 11 34  1  0
 13 35  1  0
 15 36  1  0
 16 37  1  0
 17 38  1  0
M  END
>  <meeko>  (11)
{"is_sidechain": false}

>  <source_group>  (11)
CHRFAM7A at A face

>  <source_system>  (11)
CHRNA7_encenicline

>  <source_run>  (11)
hybrid_A_face_seed4409_ex32

>  <source_seed>  (11)
4409

>  <vina_pose_rank>  (11)
11

>  <vina_affinity_kcal_mol>  (11)
-6.2080000000000002

>  <vina_rmsd_to_crystal_angstrom>  (11)
7.8826000000000001

$$$$
CHRNA7_encenicline__hybrid_A_face_seed4409_ex32__pose12
     RDKit          3D

 38 41  0  0  0  0  0  0  0  0999 V2000
  140.2630  140.8030   85.9700 O   0  0  0  0  0  0  0  0  0  0  0  0
  141.1500  140.3930   86.6380 C   0  0  0  0  0  0  0  0  0  0  0  0
  140.8690  139.8440   87.9510 N   0  0  0  0  0  0  0  0  0  0  0  0
  139.4730  139.8080   88.4410 C   0  0  1  0  0  0  0  0  0  0  0  0
  138.7640  138.5440   87.9150 C   0  0  0  0  0  0  0  0  0  0  0  0
  138.2920  137.7540   88.9660 N   0  0  0  0  0  0  0  0  0  0  0  0
  137.4240  138.4750   89.7560 C   0  0  0  0  0  0  0  0  0  0  0  0
  138.0910  139.6850   90.3400 C   0  0  0  0  0  0  0  0  0  0  0  0
  139.4560  139.7660   89.9000 C   0  0  0  0  0  0  0  0  0  0  0  0
  140.1520  138.5570   90.3340 C   0  0  0  0  0  0  0  0  0  0  0  0
  139.3820  137.3100   89.7550 C   0  0  0  0  0  0  0  0  0  0  0  0
  142.5870  140.4420   86.1050 C   0  0  0  0  0  0  0  0  0  0  0  0
  143.6970  140.0820   86.7890 C   0  0  0  0  0  0  0  0  0  0  0  0
  144.9810  140.1820   86.1540 C   0  0  0  0  0  0  0  0  0  0  0  0
  146.1920  139.8570   86.7050 C   0  0  0  0  0  0  0  0  0  0  0  0
  147.3620  140.0110   85.9600 C   0  0  0  0  0  0  0  0  0  0  0  0
  147.2970  140.4990   84.6430 C   0  0  0  0  0  0  0  0  0  0  0  0
  146.0630  140.8310   84.0750 C   0  0  0  0  0  0  0  0  0  0  0  0
  145.9870  141.4480   82.4040 Cl  0  0  0  0  0  0  0  0  0  0  0  0
  144.9100  140.6810   84.8070 C   0  0  0  0  0  0  0  0  0  0  0  0
  143.1340  140.9600   84.5360 S   0  0  0  0  0  0  0  0  0  0  0  0
  141.6010  139.4990   88.5110 H   0  0  0  0  0  0  0  0  0  0  0  0
  138.9564  140.7106   88.0827 H   0  0  0  0  0  0  0  0  0  0  0  0
  137.9151  138.8455   87.2837 H   0  0  0  0  0  0  0  0  0  0  0  0
  139.4892  137.9543   87.3350 H   0  0  0  0  0  0  0  0  0  0  0  0
  136.5684  138.7981   89.1448 H   0  0  0  0  0  0  0  0  0  0  0  0
  137.0920  137.8301   90.5830 H   0  0  0  0  0  0  0  0  0  0  0  0
  137.5518  140.5876   90.0166 H   0  0  0  0  0  0  0  0  0  0  0  0
  138.0739  139.6071   91.4371 H   0  0  0  0  0  0  0  0  0  0  0  0
  139.9404  140.6621   90.3151 H   0  0  0  0  0  0  0  0  0  0  0  0
  141.1847  138.5657   89.9551 H   0  0  0  0  0  0  0  0  0  0  0  0
  140.1806  138.5090   91.4326 H   0  0  0  0  0  0  0  0  0  0  0  0
  140.0655  136.7128   89.1336 H   0  0  0  0  0  0  0  0  0  0  0  0
  139.0073  136.6922   90.5844 H   0  0  0  0  0  0  0  0  0  0  0  0
  143.6168  139.7157   87.8231 H   0  0  0  0  0  0  0  0  0  0  0  0
  146.2425  139.4744   87.7351 H   0  0  0  0  0  0  0  0  0  0  0  0
  148.3346  139.7507   86.4030 H   0  0  0  0  0  0  0  0  0  0  0  0
  148.2202  140.6201   84.0573 H   0  0  0  0  0  0  0  0  0  0  0  0
  1  2  2  0
  2  3  1  0
  3  4  1  0
  4  5  1  0
  5  6  1  0
  6  7  1  0
  7  8  1  0
  8  9  1  0
  9 10  1  0
 10 11  1  0
  2 12  1  0
 12 13  2  0
 13 14  1  0
 14 15  2  0
 15 16  1  0
 16 17  2  0
 17 18  1  0
 18 19  1  0
 18 20  2  0
 20 21  1  0
  9  4  1  0
 21 12  1  0
 11  6  1  0
 20 14  1  0
  3 22  1  0
  4 23  1  1
  5 24  1  0
  5 25  1  0
  7 26  1  0
  7 27  1  0
  8 28  1  0
  8 29  1  0
  9 30  1  0
 10 31  1  0
 10 32  1  0
 11 33  1  0
 11 34  1  0
 13 35  1  0
 15 36  1  0
 16 37  1  0
 17 38  1  0
M  END
>  <meeko>  (12)
{"is_sidechain": false}

>  <source_group>  (12)
CHRFAM7A at A face

>  <source_system>  (12)
CHRNA7_encenicline

>  <source_run>  (12)
hybrid_A_face_seed4409_ex32

>  <source_seed>  (12)
4409

>  <vina_pose_rank>  (12)
12

>  <vina_affinity_kcal_mol>  (12)
-6.0940000000000003

>  <vina_rmsd_to_crystal_angstrom>  (12)
5.9043999999999999

$$$$
CHRNA7_encenicline__hybrid_A_face_seed4409_ex32__pose13
     RDKit          3D

 38 41  0  0  0  0  0  0  0  0999 V2000
  141.4430  136.4110   90.8320 O   0  0  0  0  0  0  0  0  0  0  0  0
  141.8950  137.4950   90.6740 C   0  0  0  0  0  0  0  0  0  0  0  0
  141.0170  138.6000   90.3420 N   0  0  0  0  0  0  0  0  0  0  0  0
  139.5630  138.3580   90.2000 C   0  0  1  0  0  0  0  0  0  0  0  0
  138.7770  139.6080   90.6400 C   0  0  0  0  0  0  0  0  0  0  0  0
  137.9710  140.0890   89.6050 N   0  0  0  0  0  0  0  0  0  0  0  0
  137.0910  139.1130   89.1890 C   0  0  0  0  0  0  0  0  0  0  0  0
  137.8160  137.8970   88.6940 C   0  0  0  0  0  0  0  0  0  0  0  0
  139.2370  138.0810   88.8040 C   0  0  0  0  0  0  0  0  0  0  0  0
  139.6140  139.2440   88.0050 C   0  0  0  0  0  0  0  0  0  0  0  0
  138.7820  140.4830   88.5120 C   0  0  0  0  0  0  0  0  0  0  0  0
  143.4040  137.7170   90.8280 C   0  0  0  0  0  0  0  0  0  0  0  0
  144.3730  136.8490   90.4550 C   0  0  0  0  0  0  0  0  0  0  0  0
  145.7500  137.1990   90.6620 C   0  0  0  0  0  0  0  0  0  0  0  0
  146.8430  136.4380   90.3410 C   0  0  0  0  0  0  0  0  0  0  0  0
  148.1270  136.9140   90.6050 C   0  0  0  0  0  0  0  0  0  0  0  0
  148.3000  138.1750   91.2010 C   0  0  0  0  0  0  0  0  0  0  0  0
  147.1890  138.9570   91.5300 C   0  0  0  0  0  0  0  0  0  0  0  0
  147.4150  140.5560   92.2850 Cl  0  0  0  0  0  0  0  0  0  0  0  0
  145.9230  138.4900   91.2710 C   0  0  0  0  0  0  0  0  0  0  0  0
  144.2240  139.0970   91.5000 S   0  0  0  0  0  0  0  0  0  0  0  0
  141.3840  139.5040   90.2120 H   0  0  0  0  0  0  0  0  0  0  0  0
  139.2908  137.4980   90.8295 H   0  0  0  0  0  0  0  0  0  0  0  0
  138.1407  139.3478   91.4988 H   0  0  0  0  0  0  0  0  0  0  0  0
  139.4969  140.3932   90.9141 H   0  0  0  0  0  0  0  0  0  0  0  0
  136.4482  138.8269   90.0345 H   0  0  0  0  0  0  0  0  0  0  0  0
  136.4904  139.5186   88.3615 H   0  0  0  0  0  0  0  0  0  0  0  0
  137.5157  137.0263   89.2954 H   0  0  0  0  0  0  0  0  0  0  0  0
  137.5583  137.7338   87.6371 H   0  0  0  0  0  0  0  0  0  0  0  0
  139.7682  137.1828   88.4559 H   0  0  0  0  0  0  0  0  0  0  0  0
  140.6891  139.4442   88.1236 H   0  0  0  0  0  0  0  0  0  0  0  0
  139.4055  139.0569   86.9413 H   0  0  0  0  0  0  0  0  0  0  0  0
  139.4689  141.2799   88.8330 H   0  0  0  0  0  0  0  0  0  0  0  0
  138.1446  140.8563   87.6969 H   0  0  0  0  0  0  0  0  0  0  0  0
  144.1081  135.8844   89.9975 H   0  0  0  0  0  0  0  0  0  0  0  0
  146.7078  135.4509   89.8747 H   0  0  0  0  0  0  0  0  0  0  0  0
  149.0042  136.3026   90.3468 H   0  0  0  0  0  0  0  0  0  0  0  0
  149.3136  138.5481   91.4094 H   0  0  0  0  0  0  0  0  0  0  0  0
  1  2  2  0
  2  3  1  0
  3  4  1  0
  4  5  1  0
  5  6  1  0
  6  7  1  0
  7  8  1  0
  8  9  1  0
  9 10  1  0
 10 11  1  0
  2 12  1  0
 12 13  2  0
 13 14  1  0
 14 15  2  0
 15 16  1  0
 16 17  2  0
 17 18  1  0
 18 19  1  0
 18 20  2  0
 20 21  1  0
  9  4  1  0
 21 12  1  0
 11  6  1  0
 20 14  1  0
  3 22  1  0
  4 23  1  1
  5 24  1  0
  5 25  1  0
  7 26  1  0
  7 27  1  0
  8 28  1  0
  8 29  1  0
  9 30  1  0
 10 31  1  0
 10 32  1  0
 11 33  1  0
 11 34  1  0
 13 35  1  0
 15 36  1  0
 16 37  1  0
 17 38  1  0
M  END
>  <meeko>  (13)
{"is_sidechain": false}

>  <source_group>  (13)
CHRFAM7A at A face

>  <source_system>  (13)
CHRNA7_encenicline

>  <source_run>  (13)
hybrid_A_face_seed4409_ex32

>  <source_seed>  (13)
4409

>  <vina_pose_rank>  (13)
13

>  <vina_affinity_kcal_mol>  (13)
-6.0759999999999996

>  <vina_rmsd_to_crystal_angstrom>  (13)
2.9655

$$$$
CHRNA7_encenicline__hybrid_A_face_seed4409_ex32__pose14
     RDKit          3D

 38 41  0  0  0  0  0  0  0  0999 V2000
  139.9360  139.0930   90.1860 O   0  0  0  0  0  0  0  0  0  0  0  0
  140.4510  140.1290   90.4380 C   0  0  0  0  0  0  0  0  0  0  0  0
  141.8650  140.1730   90.7570 N   0  0  0  0  0  0  0  0  0  0  0  0
  142.6480  138.9160   90.7680 C   0  0  1  0  0  0  0  0  0  0  0  0
  143.7280  138.9610   89.6680 C   0  0  0  0  0  0  0  0  0  0  0  0
  145.0070  138.8060   90.2080 N   0  0  0  0  0  0  0  0  0  0  0  0
  145.0960  137.6140   90.8950 C   0  0  0  0  0  0  0  0  0  0  0  0
  144.1010  137.5520   92.0160 C   0  0  0  0  0  0  0  0  0  0  0  0
  143.3150  138.7540   92.0560 C   0  0  0  0  0  0  0  0  0  0  0  0
  144.2160  139.8870   92.2530 C   0  0  0  0  0  0  0  0  0  0  0  0
  145.2830  139.8770   91.0930 C   0  0  0  0  0  0  0  0  0  0  0  0
  139.6160  141.4140   90.4200 C   0  0  0  0  0  0  0  0  0  0  0  0
  139.5290  142.3160   91.4250 C   0  0  0  0  0  0  0  0  0  0  0  0
  138.7040  143.4790   91.2610 C   0  0  0  0  0  0  0  0  0  0  0  0
  138.5110  144.4800   92.1760 C   0  0  0  0  0  0  0  0  0  0  0  0
  137.6730  145.5530   91.8710 C   0  0  0  0  0  0  0  0  0  0  0  0
  137.0250  145.6070   90.6250 C   0  0  0  0  0  0  0  0  0  0  0  0
  137.2180  144.5880   89.6870 C   0  0  0  0  0  0  0  0  0  0  0  0
  136.3960  144.6630   88.1070 Cl  0  0  0  0  0  0  0  0  0  0  0  0
  138.0430  143.5300   89.9840 C   0  0  0  0  0  0  0  0  0  0  0  0
  138.6010  142.0190   89.1420 S   0  0  0  0  0  0  0  0  0  0  0  0
  142.3000  141.0300   90.9650 H   0  0  0  0  0  0  0  0  0  0  0  0
  141.9598  138.0764   90.5908 H   0  0  0  0  0  0  0  0  0  0  0  0
  143.5416  138.1497   88.9489 H   0  0  0  0  0  0  0  0  0  0  0  0
  143.6769  139.9405   89.1701 H   0  0  0  0  0  0  0  0  0  0  0  0
  144.9028  136.7845   90.1988 H   0  0  0  0  0  0  0  0  0  0  0  0
  146.1059  137.5366   91.3241 H   0  0  0  0  0  0  0  0  0  0  0  0
  143.4360  136.6892   91.8629 H   0  0  0  0  0  0  0  0  0  0  0  0
  144.6424  137.4482   92.9679 H   0  0  0  0  0  0  0  0  0  0  0  0
  142.5749  138.7017   92.8681 H   0  0  0  0  0  0  0  0  0  0  0  0
  143.6443  140.8264   92.2247 H   0  0  0  0  0  0  0  0  0  0  0  0
  144.7164  139.8085   93.2294 H   0  0  0  0  0  0  0  0  0  0  0  0
  145.2361  140.8286   90.5432 H   0  0  0  0  0  0  0  0  0  0  0  0
  146.2886  139.7502   91.5204 H   0  0  0  0  0  0  0  0  0  0  0  0
  140.0862  142.1591   92.3604 H   0  0  0  0  0  0  0  0  0  0  0  0
  139.0170  144.4378   93.1518 H   0  0  0  0  0  0  0  0  0  0  0  0
  137.5194  146.3569   92.6059 H   0  0  0  0  0  0  0  0  0  0  0  0
  136.3640  146.4534   90.3869 H   0  0  0  0  0  0  0  0  0  0  0  0
  1  2  2  0
  2  3  1  0
  3  4  1  0
  4  5  1  0
  5  6  1  0
  6  7  1  0
  7  8  1  0
  8  9  1  0
  9 10  1  0
 10 11  1  0
  2 12  1  0
 12 13  2  0
 13 14  1  0
 14 15  2  0
 15 16  1  0
 16 17  2  0
 17 18  1  0
 18 19  1  0
 18 20  2  0
 20 21  1  0
  9  4  1  0
 21 12  1  0
 11  6  1  0
 20 14  1  0
  3 22  1  0
  4 23  1  6
  5 24  1  0
  5 25  1  0
  7 26  1  0
  7 27  1  0
  8 28  1  0
  8 29  1  0
  9 30  1  0
 10 31  1  0
 10 32  1  0
 11 33  1  0
 11 34  1  0
 13 35  1  0
 15 36  1  0
 16 37  1  0
 17 38  1  0
M  END
>  <meeko>  (14)
{"is_sidechain": false}

>  <source_group>  (14)
CHRFAM7A at A face

>  <source_system>  (14)
CHRNA7_encenicline

>  <source_run>  (14)
hybrid_A_face_seed4409_ex32

>  <source_seed>  (14)
4409

>  <vina_pose_rank>  (14)
14

>  <vina_affinity_kcal_mol>  (14)
-5.9960000000000004

>  <vina_rmsd_to_crystal_angstrom>  (14)
8.6686999999999994

$$$$
CHRNA7_encenicline__hybrid_A_face_seed4409_ex32__pose15
     RDKit          3D

 38 41  0  0  0  0  0  0  0  0999 V2000
  145.4570  135.5780   91.9310 O   0  0  0  0  0  0  0  0  0  0  0  0
  145.1580  136.4770   91.2200 C   0  0  0  0  0  0  0  0  0  0  0  0
  146.1940  137.2720   90.5900 N   0  0  0  0  0  0  0  0  0  0  0  0
  147.6160  136.9510   90.8470 C   0  0  1  0  0  0  0  0  0  0  0  0
  148.2850  136.4510   89.5510 C   0  0  0  0  0  0  0  0  0  0  0  0
  149.3740  137.2530   89.2010 N   0  0  0  0  0  0  0  0  0  0  0  0
  150.3010  137.2730   90.2200 C   0  0  0  0  0  0  0  0  0  0  0  0
  149.7090  137.8120   91.4890 C   0  0  0  0  0  0  0  0  0  0  0  0
  148.3260  138.1470   91.2930 C   0  0  0  0  0  0  0  0  0  0  0  0
  148.2400  139.1530   90.2380 C   0  0  0  0  0  0  0  0  0  0  0  0
  148.9310  138.5740   88.9450 C   0  0  0  0  0  0  0  0  0  0  0  0
  143.6780  136.7870   90.9720 C   0  0  0  0  0  0  0  0  0  0  0  0
  142.6810  135.8750   90.8950 C   0  0  0  0  0  0  0  0  0  0  0  0
  141.3360  136.3180   90.6580 C   0  0  0  0  0  0  0  0  0  0  0  0
  140.2220  135.5280   90.5560 C   0  0  0  0  0  0  0  0  0  0  0  0
  138.9740  136.1070   90.3220 C   0  0  0  0  0  0  0  0  0  0  0  0
  138.8610  137.5020   90.1900 C   0  0  0  0  0  0  0  0  0  0  0  0
  139.9940  138.3140   90.2940 C   0  0  0  0  0  0  0  0  0  0  0  0
  139.8440  140.0820   90.1280 Cl  0  0  0  0  0  0  0  0  0  0  0  0
  141.2240  137.7460   90.5250 C   0  0  0  0  0  0  0  0  0  0  0  0
  142.9300  138.3400   90.7330 S   0  0  0  0  0  0  0  0  0  0  0  0
  145.9540  138.0190   89.9960 H   0  0  0  0  0  0  0  0  0  0  0  0
  147.6605  136.1724   91.6228 H   0  0  0  0  0  0  0  0  0  0  0  0
  148.6340  135.4189   89.7028 H   0  0  0  0  0  0  0  0  0  0  0  0
  147.5451  136.4955   88.7383 H   0  0  0  0  0  0  0  0  0  0  0  0
  150.6582  136.2481   90.3989 H   0  0  0  0  0  0  0  0  0  0  0  0
  151.1312  137.9291   89.9196 H   0  0  0  0  0  0  0  0  0  0  0  0
  149.7891  137.0503   92.2786 H   0  0  0  0  0  0  0  0  0  0  0  0
  150.2580  138.7190   91.7820 H   0  0  0  0  0  0  0  0  0  0  0  0
  147.8880  138.5277   92.2275 H   0  0  0  0  0  0  0  0  0  0  0  0
  147.1849  139.3803   90.0258 H   0  0  0  0  0  0  0  0  0  0  0  0
  148.7432  140.0785   90.5547 H   0  0  0  0  0  0  0  0  0  0  0  0
  148.2087  138.5648   88.1155 H   0  0  0  0  0  0  0  0  0  0  0  0
  149.7907  139.2043   88.6737 H   0  0  0  0  0  0  0  0  0  0  0  0
  142.8993  134.8034   91.0130 H   0  0  0  0  0  0  0  0  0  0  0  0
  140.3110  134.4364   90.6586 H   0  0  0  0  0  0  0  0  0  0  0  0
  138.0793  135.4722   90.2409 H   0  0  0  0  0  0  0  0  0  0  0  0
  137.8767  137.9565   90.0041 H   0  0  0  0  0  0  0  0  0  0  0  0
  1  2  2  0
  2  3  1  0
  3  4  1  0
  4  5  1  0
  5  6  1  0
  6  7  1  0
  7  8  1  0
  8  9  1  0
  9 10  1  0
 10 11  1  0
  2 12  1  0
 12 13  2  0
 13 14  1  0
 14 15  2  0
 15 16  1  0
 16 17  2  0
 17 18  1  0
 18 19  1  0
 18 20  2  0
 20 21  1  0
  9  4  1  0
 21 12  1  0
 11  6  1  0
 20 14  1  0
  3 22  1  0
  4 23  1  1
  5 24  1  0
  5 25  1  0
  7 26  1  0
  7 27  1  0
  8 28  1  0
  8 29  1  0
  9 30  1  0
 10 31  1  0
 10 32  1  0
 11 33  1  0
 11 34  1  0
 13 35  1  0
 15 36  1  0
 16 37  1  0
 17 38  1  0
M  END
>  <meeko>  (15)
{"is_sidechain": false}

>  <source_group>  (15)
CHRFAM7A at A face

>  <source_system>  (15)
CHRNA7_encenicline

>  <source_run>  (15)
hybrid_A_face_seed4409_ex32

>  <source_seed>  (15)
4409

>  <vina_pose_rank>  (15)
15

>  <vina_affinity_kcal_mol>  (15)
-5.9900000000000002

>  <vina_rmsd_to_crystal_angstrom>  (15)
7.6626000000000003

$$$$
CHRNA7_encenicline__hybrid_A_face_seed4409_ex32__pose16
     RDKit          3D

 38 41  0  0  0  0  0  0  0  0999 V2000
  148.0580  140.3780   91.1800 O   0  0  0  0  0  0  0  0  0  0  0  0
  147.8900  139.5290   90.3730 C   0  0  0  0  0  0  0  0  0  0  0  0
  148.5800  139.5980   89.0990 N   0  0  0  0  0  0  0  0  0  0  0  0
  149.4860  140.7370   88.8240 C   0  0  1  0  0  0  0  0  0  0  0  0
  150.7060  140.2540   88.0140 C   0  0  0  0  0  0  0  0  0  0  0  0
  150.8080  140.9340   86.7980 N   0  0  0  0  0  0  0  0  0  0  0  0
  150.9060  142.2910   87.0150 C   0  0  0  0  0  0  0  0  0  0  0  0
  149.7080  142.8170   87.7490 C   0  0  0  0  0  0  0  0  0  0  0  0
  148.7900  141.7510   88.0370 C   0  0  0  0  0  0  0  0  0  0  0  0
  148.3730  141.1470   86.7740 C   0  0  0  0  0  0  0  0  0  0  0  0
  149.6640  140.6690   86.0060 C   0  0  0  0  0  0  0  0  0  0  0  0
  146.9470  138.3620   90.6850 C   0  0  0  0  0  0  0  0  0  0  0  0
  147.3170  137.1500   91.1600 C   0  0  0  0  0  0  0  0  0  0  0  0
  146.3150  136.1520   91.4070 C   0  0  0  0  0  0  0  0  0  0  0  0
  146.5240  134.8860   91.8860 C   0  0  0  0  0  0  0  0  0  0  0  0
  145.4430  134.0240   92.0740 C   0  0  0  0  0  0  0  0  0  0  0  0
  144.1400  134.4540   91.7730 C   0  0  0  0  0  0  0  0  0  0  0  0
  143.9200  135.7460   91.2850 C   0  0  0  0  0  0  0  0  0  0  0  0
  142.2640  136.2880   90.9070 Cl  0  0  0  0  0  0  0  0  0  0  0  0
  144.9830  136.5970   91.0980 C   0  0  0  0  0  0  0  0  0  0  0  0
  145.2160  138.3030   90.5130 S   0  0  0  0  0  0  0  0  0  0  0  0
  148.4480  138.8950   88.4240 H   0  0  0  0  0  0  0  0  0  0  0  0
  149.8112  141.1613   89.7854 H   0  0  0  0  0  0  0  0  0  0  0  0
  151.6191  140.4308   88.6013 H   0  0  0  0  0  0  0  0  0  0  0  0
  150.5810  139.1816   87.8033 H   0  0  0  0  0  0  0  0  0  0  0  0
  151.8081  142.4937   87.6110 H   0  0  0  0  0  0  0  0  0  0  0  0
  150.9615  142.7942   86.0384 H   0  0  0  0  0  0  0  0  0  0  0  0
  150.0348  143.2788   88.6924 H   0  0  0  0  0  0  0  0  0  0  0  0
  149.2022  143.5631   87.1185 H   0  0  0  0  0  0  0  0  0  0  0  0
  147.9191  142.1344   88.5888 H   0  0  0  0  0  0  0  0  0  0  0  0
  147.7173  140.2862   86.9716 H   0  0  0  0  0  0  0  0  0  0  0  0
  147.8195  141.8790   86.1675 H   0  0  0  0  0  0  0  0  0  0  0  0
  149.5955  139.5888   85.8101 H   0  0  0  0  0  0  0  0  0  0  0  0
  149.7448  141.2096   85.0514 H   0  0  0  0  0  0  0  0  0  0  0  0
  148.3772  136.9313   91.3553 H   0  0  0  0  0  0  0  0  0  0  0  0
  147.5440  134.5488   92.1225 H   0  0  0  0  0  0  0  0  0  0  0  0
  145.6112  133.0071   92.4581 H   0  0  0  0  0  0  0  0  0  0  0  0
  143.2898  133.7721   91.9217 H   0  0  0  0  0  0  0  0  0  0  0  0
  1  2  2  0
  2  3  1  0
  3  4  1  0
  4  5  1  0
  5  6  1  0
  6  7  1  0
  7  8  1  0
  8  9  1  0
  9 10  1  0
 10 11  1  0
  2 12  1  0
 12 13  2  0
 13 14  1  0
 14 15  2  0
 15 16  1  0
 16 17  2  0
 17 18  1  0
 18 19  1  0
 18 20  2  0
 20 21  1  0
  9  4  1  0
 21 12  1  0
 11  6  1  0
 20 14  1  0
  3 22  1  0
  4 23  1  1
  5 24  1  0
  5 25  1  0
  7 26  1  0
  7 27  1  0
  8 28  1  0
  8 29  1  0
  9 30  1  0
 10 31  1  0
 10 32  1  0
 11 33  1  0
 11 34  1  0
 13 35  1  0
 15 36  1  0
 16 37  1  0
 17 38  1  0
M  END
>  <meeko>  (16)
{"is_sidechain": false}

>  <source_group>  (16)
CHRFAM7A at A face

>  <source_system>  (16)
CHRNA7_encenicline

>  <source_run>  (16)
hybrid_A_face_seed4409_ex32

>  <source_seed>  (16)
4409

>  <vina_pose_rank>  (16)
16

>  <vina_affinity_kcal_mol>  (16)
-5.9349999999999996

>  <vina_rmsd_to_crystal_angstrom>  (16)
7.2214

$$$$
CHRNA7_encenicline__hybrid_A_face_seed4409_ex32__pose17
     RDKit          3D

 38 41  0  0  0  0  0  0  0  0999 V2000
  141.4230  142.3220   93.2490 O   0  0  0  0  0  0  0  0  0  0  0  0
  140.3910  142.8940   93.3560 C   0  0  0  0  0  0  0  0  0  0  0  0
  139.9450  143.3360   94.6630 N   0  0  0  0  0  0  0  0  0  0  0  0
  140.7860  143.0620   95.8500 C   0  0  1  0  0  0  0  0  0  0  0  0
  140.6220  144.1950   96.8830 C   0  0  0  0  0  0  0  0  0  0  0  0
  140.1630  143.7020   98.1070 N   0  0  0  0  0  0  0  0  0  0  0  0
  141.0320  142.7530   98.5980 C   0  0  0  0  0  0  0  0  0  0  0  0
  141.1760  141.5990   97.6500 C   0  0  0  0  0  0  0  0  0  0  0  0
  140.3730  141.8100   96.4780 C   0  0  0  0  0  0  0  0  0  0  0  0
  138.9780  141.9420   96.8930 C   0  0  0  0  0  0  0  0  0  0  0  0
  138.8830  143.1200   97.9360 C   0  0  0  0  0  0  0  0  0  0  0  0
  139.5410  143.1640   92.1090 C   0  0  0  0  0  0  0  0  0  0  0  0
  138.7140  144.2190   91.9290 C   0  0  0  0  0  0  0  0  0  0  0  0
  137.9800  144.3390   90.7020 C   0  0  0  0  0  0  0  0  0  0  0  0
  137.1090  145.3420   90.3650 C   0  0  0  0  0  0  0  0  0  0  0  0
  136.4650  145.3210   89.1270 C   0  0  0  0  0  0  0  0  0  0  0  0
  136.7100  144.2720   88.2250 C   0  0  0  0  0  0  0  0  0  0  0  0
  137.5990  143.2460   88.5620 C   0  0  0  0  0  0  0  0  0  0  0  0
  137.9080  141.9190   87.4130 Cl  0  0  0  0  0  0  0  0  0  0  0  0
  138.2340  143.2640   89.7810 C   0  0  0  0  0  0  0  0  0  0  0  0
  139.4290  142.2110   90.6570 S   0  0  0  0  0  0  0  0  0  0  0  0
  139.0900  143.8140   94.7600 H   0  0  0  0  0  0  0  0  0  0  0  0
  141.8342  142.9935   95.5236 H   0  0  0  0  0  0  0  0  0  0  0  0
  141.5952  144.6845   97.0358 H   0  0  0  0  0  0  0  0  0  0  0  0
  139.8825  144.9124   96.4978 H   0  0  0  0  0  0  0  0  0  0  0  0
  142.0182  143.2158   98.7507 H   0  0  0  0  0  0  0  0  0  0  0  0
  140.6279  142.3723   99.5476 H   0  0  0  0  0  0  0  0  0  0  0  0
  142.2310  141.5028   97.3539 H   0  0  0  0  0  0  0  0  0  0  0  0
  140.8389  140.6804   98.1526 H   0  0  0  0  0  0  0  0  0  0  0  0
  140.4910  140.9712   95.7763 H   0  0  0  0  0  0  0  0  0  0  0  0
  138.3493  142.1672   96.0189 H   0  0  0  0  0  0  0  0  0  0  0  0
  138.6265  141.0037   97.3470 H   0  0  0  0  0  0  0  0  0  0  0  0
  138.1802  143.8813   97.5666 H   0  0  0  0  0  0  0  0  0  0  0  0
  138.5256  142.7290   98.9000 H   0  0  0  0  0  0  0  0  0  0  0  0
  138.6050  144.9788   92.7169 H   0  0  0  0  0  0  0  0  0  0  0  0
  136.9174  146.1639   91.0705 H   0  0  0  0  0  0  0  0  0  0  0  0
  135.7654  146.1259   88.8574 H   0  0  0  0  0  0  0  0  0  0  0  0
  136.2008  144.2575   87.2501 H   0  0  0  0  0  0  0  0  0  0  0  0
  1  2  2  0
  2  3  1  0
  3  4  1  0
  4  5  1  0
  5  6  1  0
  6  7  1  0
  7  8  1  0
  8  9  1  0
  9 10  1  0
 10 11  1  0
  2 12  1  0
 12 13  2  0
 13 14  1  0
 14 15  2  0
 15 16  1  0
 16 17  2  0
 17 18  1  0
 18 19  1  0
 18 20  2  0
 20 21  1  0
  9  4  1  0
 21 12  1  0
 11  6  1  0
 20 14  1  0
  3 22  1  0
  4 23  1  6
  5 24  1  0
  5 25  1  0
  7 26  1  0
  7 27  1  0
  8 28  1  0
  8 29  1  0
  9 30  1  0
 10 31  1  0
 10 32  1  0
 11 33  1  0
 11 34  1  0
 13 35  1  0
 15 36  1  0
 16 37  1  0
 17 38  1  0
M  END
>  <meeko>  (17)
{"is_sidechain": false}

>  <source_group>  (17)
CHRFAM7A at A face

>  <source_system>  (17)
CHRNA7_encenicline

>  <source_run>  (17)
hybrid_A_face_seed4409_ex32

>  <source_seed>  (17)
4409

>  <vina_pose_rank>  (17)
17

>  <vina_affinity_kcal_mol>  (17)
-5.9089999999999998

>  <vina_rmsd_to_crystal_angstrom>  (17)
9.7530000000000001

$$$$
CHRNA7_encenicline__hybrid_A_face_seed4409_ex32__pose18
     RDKit          3D

 38 41  0  0  0  0  0  0  0  0999 V2000
  144.5340  142.2400   94.8370 O   0  0  0  0  0  0  0  0  0  0  0  0
  143.6690  141.6610   94.2730 C   0  0  0  0  0  0  0  0  0  0  0  0
  142.2830  141.9600   94.5790 N   0  0  0  0  0  0  0  0  0  0  0  0
  141.9680  142.9870   95.5980 C   0  0  1  0  0  0  0  0  0  0  0  0
  140.6670  143.7220   95.2180 C   0  0  0  0  0  0  0  0  0  0  0  0
  139.7040  143.6000   96.2230 N   0  0  0  0  0  0  0  0  0  0  0  0
  140.1870  144.1000   97.4120 C   0  0  0  0  0  0  0  0  0  0  0  0
  141.4220  143.3710   97.8530 C   0  0  0  0  0  0  0  0  0  0  0  0
  141.7710  142.3550   96.8990 C   0  0  0  0  0  0  0  0  0  0  0  0
  140.6530  141.4210   96.7920 C   0  0  0  0  0  0  0  0  0  0  0  0
  139.3640  142.2350   96.3930 C   0  0  0  0  0  0  0  0  0  0  0  0
  144.0240  140.6030   93.2220 C   0  0  0  0  0  0  0  0  0  0  0  0
  143.8800  139.2650   93.3660 C   0  0  0  0  0  0  0  0  0  0  0  0
  144.2560  138.3950   92.2880 C   0  0  0  0  0  0  0  0  0  0  0  0
  144.1720  137.0280   92.2740 C   0  0  0  0  0  0  0  0  0  0  0  0
  144.5800  136.3140   91.1470 C   0  0  0  0  0  0  0  0  0  0  0  0
  145.0780  136.9980   90.0250 C   0  0  0  0  0  0  0  0  0  0  0  0
  145.1670  138.3940   90.0320 C   0  0  0  0  0  0  0  0  0  0  0  0
  145.7980  139.2560   88.6050 Cl  0  0  0  0  0  0  0  0  0  0  0  0
  144.7650  139.0990   91.1420 C   0  0  0  0  0  0  0  0  0  0  0  0
  144.6830  140.8480   91.6300 S   0  0  0  0  0  0  0  0  0  0  0  0
  141.5580  141.4850   94.1130 H   0  0  0  0  0  0  0  0  0  0  0  0
  142.8060  143.6980   95.6455 H   0  0  0  0  0  0  0  0  0  0  0  0
  140.8898  144.7879   95.0624 H   0  0  0  0  0  0  0  0  0  0  0  0
  140.2684  143.2699   94.2978 H   0  0  0  0  0  0  0  0  0  0  0  0
  140.4283  145.1651   97.2803 H   0  0  0  0  0  0  0  0  0  0  0  0
  139.4134  143.9665   98.1825 H   0  0  0  0  0  0  0  0  0  0  0  0
  142.2531  144.0862   97.9413 H   0  0  0  0  0  0  0  0  0  0  0  0
  141.2277  142.8956   98.8258 H   0  0  0  0  0  0  0  0  0  0  0  0
  142.6854  141.8307   97.2136 H   0  0  0  0  0  0  0  0  0  0  0  0
  140.8705  140.6675   96.0207 H   0  0  0  0  0  0  0  0  0  0  0  0
  140.4949  140.9079   97.7521 H   0  0  0  0  0  0  0  0  0  0  0  0
  138.9561  141.8383   95.4516 H   0  0  0  0  0  0  0  0  0  0  0  0
  138.6088  142.1403   97.1872 H   0  0  0  0  0  0  0  0  0  0  0  0
  143.4783  138.8478   94.3012 H   0  0  0  0  0  0  0  0  0  0  0  0
  143.7824  136.4925   93.1523 H   0  0  0  0  0  0  0  0  0  0  0  0
  144.5119  135.2162   91.1367 H   0  0  0  0  0  0  0  0  0  0  0  0
  145.3992  136.4332   89.1374 H   0  0  0  0  0  0  0  0  0  0  0  0
  1  2  2  0
  2  3  1  0
  3  4  1  0
  4  5  1  0
  5  6  1  0
  6  7  1  0
  7  8  1  0
  8  9  1  0
  9 10  1  0
 10 11  1  0
  2 12  1  0
 12 13  2  0
 13 14  1  0
 14 15  2  0
 15 16  1  0
 16 17  2  0
 17 18  1  0
 18 19  1  0
 18 20  2  0
 20 21  1  0
  9  4  1  0
 21 12  1  0
 11  6  1  0
 20 14  1  0
  3 22  1  0
  4 23  1  1
  5 24  1  0
  5 25  1  0
  7 26  1  0
  7 27  1  0
  8 28  1  0
  8 29  1  0
  9 30  1  0
 10 31  1  0
 10 32  1  0
 11 33  1  0
 11 34  1  0
 13 35  1  0
 15 36  1  0
 16 37  1  0
 17 38  1  0
M  END
>  <meeko>  (18)
{"is_sidechain": false}

>  <source_group>  (18)
CHRFAM7A at A face

>  <source_system>  (18)
CHRNA7_encenicline

>  <source_run>  (18)
hybrid_A_face_seed4409_ex32

>  <source_seed>  (18)
4409

>  <vina_pose_rank>  (18)
18

>  <vina_affinity_kcal_mol>  (18)
-5.8920000000000003

>  <vina_rmsd_to_crystal_angstrom>  (18)
5.7888000000000002

$$$$
CHRNA7_encenicline__hybrid_A_face_seed4409_ex32__pose19
     RDKit          3D

 38 41  0  0  0  0  0  0  0  0999 V2000
  143.7420  139.4010   95.6630 O   0  0  0  0  0  0  0  0  0  0  0  0
  143.6150  140.0890   94.7070 C   0  0  0  0  0  0  0  0  0  0  0  0
  142.9740  141.3840   94.8330 N   0  0  0  0  0  0  0  0  0  0  0  0
  142.4820  141.8280   96.1570 C   0  0  1  0  0  0  0  0  0  0  0  0
  142.7960  143.3240   96.3590 C   0  0  0  0  0  0  0  0  0  0  0  0
  141.6300  144.0590   96.5880 N   0  0  0  0  0  0  0  0  0  0  0  0
  140.9660  143.5730   97.6930 C   0  0  0  0  0  0  0  0  0  0  0  0
  140.5870  142.1330   97.5140 C   0  0  0  0  0  0  0  0  0  0  0  0
  141.0360  141.6510   96.2380 C   0  0  0  0  0  0  0  0  0  0  0  0
  140.4140  142.4620   95.1940 C   0  0  0  0  0  0  0  0  0  0  0  0
  140.7830  143.9720   95.4560 C   0  0  0  0  0  0  0  0  0  0  0  0
  144.1340  139.6040   93.3490 C   0  0  0  0  0  0  0  0  0  0  0  0
  143.8790  140.1820   92.1520 C   0  0  0  0  0  0  0  0  0  0  0  0
  144.4390  139.6130   90.9600 C   0  0  0  0  0  0  0  0  0  0  0  0
  144.2800  140.0760   89.6810 C   0  0  0  0  0  0  0  0  0  0  0  0
  144.8890  139.4100   88.6160 C   0  0  0  0  0  0  0  0  0  0  0  0
  145.6660  138.2640   88.8560 C   0  0  0  0  0  0  0  0  0  0  0  0
  145.8340  137.7870   90.1600 C   0  0  0  0  0  0  0  0  0  0  0  0
  146.8230  136.3350   90.4590 Cl  0  0  0  0  0  0  0  0  0  0  0  0
  145.2350  138.4410   91.2100 C   0  0  0  0  0  0  0  0  0  0  0  0
  145.1490  138.2310   93.0140 S   0  0  0  0  0  0  0  0  0  0  0  0
  142.8670  141.9630   94.0440 H   0  0  0  0  0  0  0  0  0  0  0  0
  142.9803  141.2269   96.9318 H   0  0  0  0  0  0  0  0  0  0  0  0
  143.4665  143.4362   97.2238 H   0  0  0  0  0  0  0  0  0  0  0  0
  143.2744  143.7058   95.4450 H   0  0  0  0  0  0  0  0  0  0  0  0
  141.6203  143.6642   98.5725 H   0  0  0  0  0  0  0  0  0  0  0  0
  140.0451  144.1591   97.8291 H   0  0  0  0  0  0  0  0  0  0  0  0
  141.0516  141.5343   98.3113 H   0  0  0  0  0  0  0  0  0  0  0  0
  139.4917  142.0440   97.5632 H   0  0  0  0  0  0  0  0  0  0  0  0
  140.7713  140.5906   96.1138 H   0  0  0  0  0  0  0  0  0  0  0  0
  140.7911  142.1524   94.2081 H   0  0  0  0  0  0  0  0  0  0  0  0
  139.3221  142.3298   95.2109 H   0  0  0  0  0  0  0  0  0  0  0  0
  141.3022  144.3810   94.5767 H   0  0  0  0  0  0  0  0  0  0  0  0
  139.8643  144.5487   95.6389 H   0  0  0  0  0  0  0  0  0  0  0  0
  143.2475  141.0808   92.0936 H   0  0  0  0  0  0  0  0  0  0  0  0
  143.6720  140.9732   89.4928 H   0  0  0  0  0  0  0  0  0  0  0  0
  144.7607  139.7823   87.5889 H   0  0  0  0  0  0  0  0  0  0  0  0
  146.1439  137.7401   88.0151 H   0  0  0  0  0  0  0  0  0  0  0  0
  1  2  2  0
  2  3  1  0
  3  4  1  0
  4  5  1  0
  5  6  1  0
  6  7  1  0
  7  8  1  0
  8  9  1  0
  9 10  1  0
 10 11  1  0
  2 12  1  0
 12 13  2  0
 13 14  1  0
 14 15  2  0
 15 16  1  0
 16 17  2  0
 17 18  1  0
 18 19  1  0
 18 20  2  0
 20 21  1  0
  9  4  1  0
 21 12  1  0
 11  6  1  0
 20 14  1  0
  3 22  1  0
  4 23  1  1
  5 24  1  0
  5 25  1  0
  7 26  1  0
  7 27  1  0
  8 28  1  0
  8 29  1  0
  9 30  1  0
 10 31  1  0
 10 32  1  0
 11 33  1  0
 11 34  1  0
 13 35  1  0
 15 36  1  0
 16 37  1  0
 17 38  1  0
M  END
>  <meeko>  (19)
{"is_sidechain": false}

>  <source_group>  (19)
CHRFAM7A at A face

>  <source_system>  (19)
CHRNA7_encenicline

>  <source_run>  (19)
hybrid_A_face_seed4409_ex32

>  <source_seed>  (19)
4409

>  <vina_pose_rank>  (19)
19

>  <vina_affinity_kcal_mol>  (19)
-5.7869999999999999

>  <vina_rmsd_to_crystal_angstrom>  (19)
6.0496999999999996

$$$$
CHRNA7_encenicline__hybrid_A_face_seed4409_ex32__pose20
     RDKit          3D

 38 41  0  0  0  0  0  0  0  0999 V2000
  149.2000  135.4980   92.5840 O   0  0  0  0  0  0  0  0  0  0  0  0
  148.8200  136.3720   91.8810 C   0  0  0  0  0  0  0  0  0  0  0  0
  149.7800  137.2390   91.2250 N   0  0  0  0  0  0  0  0  0  0  0  0
  151.2280  137.0210   91.4460 C   0  0  1  0  0  0  0  0  0  0  0  0
  151.8990  136.5780   90.1310 C   0  0  0  0  0  0  0  0  0  0  0  0
  152.9190  137.4580   89.7620 N   0  0  0  0  0  0  0  0  0  0  0  0
  153.8660  137.5400   90.7590 C   0  0  0  0  0  0  0  0  0  0  0  0
  153.2670  138.0270   92.0450 C   0  0  0  0  0  0  0  0  0  0  0  0
  151.8590  138.2620   91.8850 C   0  0  0  0  0  0  0  0  0  0  0  0
  151.6750  139.2650   90.8390 C   0  0  0  0  0  0  0  0  0  0  0  0
  152.3750  138.7450   89.5270 C   0  0  0  0  0  0  0  0  0  0  0  0
  147.3150  136.5750   91.6700 C   0  0  0  0  0  0  0  0  0  0  0  0
  146.3980  135.5920   91.5210 C   0  0  0  0  0  0  0  0  0  0  0  0
  145.0180  135.9370   91.3320 C   0  0  0  0  0  0  0  0  0  0  0  0
  143.9720  135.0670   91.1690 C   0  0  0  0  0  0  0  0  0  0  0  0
  142.6770  135.5560   90.9940 C   0  0  0  0  0  0  0  0  0  0  0  0
  142.4450  136.9420   90.9840 C   0  0  0  0  0  0  0  0  0  0  0  0
  143.5070  137.8350   91.1510 C   0  0  0  0  0  0  0  0  0  0  0  0
  143.2060  139.5930   91.1390 Cl  0  0  0  0  0  0  0  0  0  0  0  0
  144.7840  137.3560   91.3230 C   0  0  0  0  0  0  0  0  0  0  0  0
  146.4360  138.0740   91.5710 S   0  0  0  0  0  0  0  0  0  0  0  0
  149.4720  137.9650   90.6370 H   0  0  0  0  0  0  0  0  0  0  0  0
  151.3487  136.2434   92.2146 H   0  0  0  0  0  0  0  0  0  0  0  0
  152.3243  135.5726   90.2663 H   0  0  0  0  0  0  0  0  0  0  0  0
  151.1384  136.5742   89.3364 H   0  0  0  0  0  0  0  0  0  0  0  0
  154.3011  136.5430   90.9220 H   0  0  0  0  0  0  0  0  0  0  0  0
  154.6387  138.2568   90.4440 H   0  0  0  0  0  0  0  0  0  0  0  0
  153.4212  137.2685   92.8266 H   0  0  0  0  0  0  0  0  0  0  0  0
  153.7556  138.9701   92.3312 H   0  0  0  0  0  0  0  0  0  0  0  0
  151.4174  138.6043   92.8325 H   0  0  0  0  0  0  0  0  0  0  0  0
  150.6014  139.4160   90.6530 H   0  0  0  0  0  0  0  0  0  0  0  0
  152.1169  140.2230   91.1504 H   0  0  0  0  0  0  0  0  0  0  0  0
  151.6357  138.6881   88.7145 H   0  0  0  0  0  0  0  0  0  0  0  0
  153.1803  139.4376   89.2411 H   0  0  0  0  0  0  0  0  0  0  0  0
  146.7075  134.5367   91.5445 H   0  0  0  0  0  0  0  0  0  0  0  0
  144.1534  133.9821   91.1761 H   0  0  0  0  0  0  0  0  0  0  0  0
  141.8378  134.8568   90.8639 H   0  0  0  0  0  0  0  0  0  0  0  0
  141.4236  137.3255   90.8442 H   0  0  0  0  0  0  0  0  0  0  0  0
  1  2  2  0
  2  3  1  0
  3  4  1  0
  4  5  1  0
  5  6  1  0
  6  7  1  0
  7  8  1  0
  8  9  1  0
  9 10  1  0
 10 11  1  0
  2 12  1  0
 12 13  2  0
 13 14  1  0
 14 15  2  0
 15 16  1  0
 16 17  2  0
 17 18  1  0
 18 19  1  0
 18 20  2  0
 20 21  1  0
  9  4  1  0
 21 12  1  0
 11  6  1  0
 20 14  1  0
  3 22  1  0
  4 23  1  1
  5 24  1  0
  5 25  1  0
  7 26  1  0
  7 27  1  0
  8 28  1  0
  8 29  1  0
  9 30  1  0
 10 31  1  0
 10 32  1  0
 11 33  1  0
 11 34  1  0
 13 35  1  0
 15 36  1  0
 16 37  1  0
 17 38  1  0
M  END
>  <meeko>  (20)
{"is_sidechain": false}

>  <source_group>  (20)
CHRFAM7A at A face

>  <source_system>  (20)
CHRNA7_encenicline

>  <source_run>  (20)
hybrid_A_face_seed4409_ex32

>  <source_seed>  (20)
4409

>  <vina_pose_rank>  (20)
20

>  <vina_affinity_kcal_mol>  (20)
-5.6360000000000001

>  <vina_rmsd_to_crystal_angstrom>  (20)
9.1721000000000004

$$$$
