CHRNA7_encenicline__hybrid_A_face_seed4409_ex32__pose01


 22 25  0  0  0  0  0  0  0  0999 V2000
  142.0280  140.4270   90.9420 O   0  0  0  0  0  0  0  0  0  0  0  0
  142.1610  139.2700   90.7270 C   0  0  0  0  0  0  0  0  0  0  0  0
  141.0140  138.4730   90.3380 N   0  0  0  0  0  0  0  0  0  0  0  0
  141.1160  137.5120   90.1550 H   0  0  0  0  0  0  0  0  0  0  0  0
  143.5470  138.6290   90.8580 C   0  0  0  0  0  0  0  0  0  0  0  0
  143.7940  137.3190   91.0890 C   0  0  0  0  0  0  0  0  0  0  0  0
  145.1520  136.8630   91.1860 C   0  0  0  0  0  0  0  0  0  0  0  0
  145.5680  135.5780   91.4130 C   0  0  0  0  0  0  0  0  0  0  0  0
  146.9310  135.2870   91.4820 C   0  0  0  0  0  0  0  0  0  0  0  0
  147.8770  136.3130   91.3200 C   0  0  0  0  0  0  0  0  0  0  0  0
  147.4590  137.6270   91.0870 C   0  0  0  0  0  0  0  0  0  0  0  0
  148.6640  138.9240   90.8790 Cl  0  0  0  0  0  0  0  0  0  0  0  0
  146.1170  137.9160   91.0180 C   0  0  0  0  0  0  0  0  0  0  0  0
  145.1030  139.4010   90.7460 S   0  0  0  0  0  0  0  0  0  0  0  0
  139.6860  139.1180   90.2180 C   0  0  0  0  0  0  0  0  0  0  0  0
  139.3970  139.4550   88.7420 C   0  0  0  0  0  0  0  0  0  0  0  0
  138.2270  138.8310   88.3000 N   0  0  0  0  0  0  0  0  0  0  0  0
  137.1570  139.2120   89.0790 C   0  0  0  0  0  0  0  0  0  0  0  0
  137.3690  138.8470   90.5190 C   0  0  0  0  0  0  0  0  0  0  0  0
  138.6450  138.2100   90.6910 C   0  0  0  0  0  0  0  0  0  0  0  0
  138.6740  137.0060   89.8640 C   0  0  0  0  0  0  0  0  0  0  0  0
  138.3820  137.4240   88.3730 C   0  0  0  0  0  0  0  0  0  0  0  0
  1  2  2  0
  2  3  1  0
  3 15  1  0
 15 16  1  0
 16 17  1  0
 17 18  1  0
 18 19  1  0
 19 20  1  0
 20 21  1  0
 21 22  1  0
  2  5  1  0
  5  6  2  0
  6  7  1  0
  7  8  2  0
  8  9  1  0
  9 10  2  0
 10 11  1  0
 11 12  1  0
 11 13  2  0
 13 14  1  0
 20 15  1  0
 14  5  1  0
 22 17  1  0
 13  7  1  0
  3  4  1  0
M  END
> <meeko>
{"is_sidechain": false}

> <source_group>
CHRFAM7A at A face

> <source_system>
CHRNA7_encenicline

> <source_run>
hybrid_A_face_seed4409_ex32

> <source_seed>
4409

> <vina_pose_rank>
1

> <vina_affinity_kcal_mol>
-7.5359999999999996

> <vina_rmsd_to_crystal_angstrom>
2.0017999999999998

> <minimizedAffinity>
-7.54034

> <CNNscore>
0.8011822701

> <CNNaffinity>
6.5962085724

> <CNN_VS>
5.2847652435

> <CNNaffinity_variance>
0.2627018690

$$$$
CHRNA7_encenicline__hybrid_A_face_seed4409_ex32__pose02


 22 25  0  0  0  0  0  0  0  0999 V2000
  142.3790  138.1450   90.8690 O   0  0  0  0  0  0  0  0  0  0  0  0
  142.4170  139.2010   90.3350 C   0  0  0  0  0  0  0  0  0  0  0  0
  141.1850  139.8360   89.9070 N   0  0  0  0  0  0  0  0  0  0  0  0
  141.2080  140.7150   89.4640 H   0  0  0  0  0  0  0  0  0  0  0  0
  143.7680  139.8860   90.1040 C   0  0  0  0  0  0  0  0  0  0  0  0
  144.3270  140.1480   88.9000 C   0  0  0  0  0  0  0  0  0  0  0  0
  145.6040  140.8000   88.8410 C   0  0  0  0  0  0  0  0  0  0  0  0
  146.2990  141.1360   87.7100 C   0  0  0  0  0  0  0  0  0  0  0  0
  147.5380  141.7700   87.8130 C   0  0  0  0  0  0  0  0  0  0  0  0
  148.0730  142.0640   89.0790 C   0  0  0  0  0  0  0  0  0  0  0  0
  147.3680  141.7250   90.2380 C   0  0  0  0  0  0  0  0  0  0  0  0
  148.0510  142.1020   91.8410 Cl  0  0  0  0  0  0  0  0  0  0  0  0
  146.1480  141.1000   90.1390 C   0  0  0  0  0  0  0  0  0  0  0  0
  144.8900  140.4790   91.2950 S   0  0  0  0  0  0  0  0  0  0  0  0
  139.8930  139.1530   90.1430 C   0  0  0  0  0  0  0  0  0  0  0  0
  138.8170  140.1850   90.5330 C   0  0  0  0  0  0  0  0  0  0  0  0
  137.7400  140.1540   89.6430 N   0  0  0  0  0  0  0  0  0  0  0  0
  137.1810  138.8950   89.6090 C   0  0  0  0  0  0  0  0  0  0  0  0
  138.1810  137.8650   89.1740 C   0  0  0  0  0  0  0  0  0  0  0  0
  139.4560  138.4770   88.9250 C   0  0  0  0  0  0  0  0  0  0  0  0
  139.2880  139.4800   87.8770 C   0  0  0  0  0  0  0  0  0  0  0  0
  138.1850  140.5040   88.3450 C   0  0  0  0  0  0  0  0  0  0  0  0
  1  2  2  0
  2  3  1  0
  3 15  1  0
 15 16  1  0
 16 17  1  0
 17 18  1  0
 18 19  1  0
 19 20  1  0
 20 21  1  0
 21 22  1  0
  2  5  1  0
  5  6  2  0
  6  7  1  0
  7  8  2  0
  8  9  1  0
  9 10  2  0
 10 11  1  0
 11 12  1  0
 11 13  2  0
 13 14  1  0
 20 15  1  0
 14  5  1  0
 22 17  1  0
 13  7  1  0
  3  4  1  0
M  END
> <meeko>
{"is_sidechain": false}

> <source_group>
CHRFAM7A at A face

> <source_system>
CHRNA7_encenicline

> <source_run>
hybrid_A_face_seed4409_ex32

> <source_seed>
4409

> <vina_pose_rank>
2

> <vina_affinity_kcal_mol>
-7.5209999999999999

> <vina_rmsd_to_crystal_angstrom>
4.4812000000000003

> <minimizedAffinity>
-7.51002

> <CNNscore>
0.5469251275

> <CNNaffinity>
5.9843363762

> <CNN_VS>
3.2729840279

> <CNNaffinity_variance>
0.0872542933

$$$$
CHRNA7_encenicline__hybrid_A_face_seed4409_ex32__pose03


 22 25  0  0  0  0  0  0  0  0999 V2000
  142.8230  138.7830   91.1000 O   0  0  0  0  0  0  0  0  0  0  0  0
  142.6850  139.4840   90.1560 C   0  0  0  0  0  0  0  0  0  0  0  0
  141.3510  139.8160   89.6940 N   0  0  0  0  0  0  0  0  0  0  0  0
  141.2280  140.4010   88.9110 H   0  0  0  0  0  0  0  0  0  0  0  0
  143.9200  140.0370   89.4360 C   0  0  0  0  0  0  0  0  0  0  0  0
  144.9560  140.6810   90.0210 C   0  0  0  0  0  0  0  0  0  0  0  0
  146.0490  141.1410   89.2130 C   0  0  0  0  0  0  0  0  0  0  0  0
  147.1660  141.8030   89.6490 C   0  0  0  0  0  0  0  0  0  0  0  0
  148.1480  142.1910   88.7380 C   0  0  0  0  0  0  0  0  0  0  0  0
  147.9920  141.9030   87.3710 C   0  0  0  0  0  0  0  0  0  0  0  0
  146.8550  141.2270   86.9190 C   0  0  0  0  0  0  0  0  0  0  0  0
  146.6630  140.8620   85.1850 Cl  0  0  0  0  0  0  0  0  0  0  0  0
  145.8850  140.8440   87.8150 C   0  0  0  0  0  0  0  0  0  0  0  0
  144.2890  139.9780   87.7360 S   0  0  0  0  0  0  0  0  0  0  0  0
  140.1760  139.2690   90.4080 C   0  0  0  0  0  0  0  0  0  0  0  0
  139.0960  140.3600   90.5560 C   0  0  0  0  0  0  0  0  0  0  0  0
  137.8950  139.9670   89.9610 N   0  0  0  0  0  0  0  0  0  0  0  0
  137.4440  138.7920   90.5230 C   0  0  0  0  0  0  0  0  0  0  0  0
  138.4400  137.6840   90.3480 C   0  0  0  0  0  0  0  0  0  0  0  0
  139.6020  138.1600   89.6520 C   0  0  0  0  0  0  0  0  0  0  0  0
  139.1840  138.6620   88.3460 C   0  0  0  0  0  0  0  0  0  0  0  0
  138.0910  139.7760   88.5720 C   0  0  0  0  0  0  0  0  0  0  0  0
  1  2  2  0
  2  3  1  0
  3 15  1  0
 15 16  1  0
 16 17  1  0
 17 18  1  0
 18 19  1  0
 19 20  1  0
 20 21  1  0
 21 22  1  0
  2  5  1  0
  5  6  2  0
  6  7  1  0
  7  8  2  0
  8  9  1  0
  9 10  2  0
 10 11  1  0
 11 12  1  0
 11 13  2  0
 13 14  1  0
 20 15  1  0
 14  5  1  0
 22 17  1  0
 13  7  1  0
  3  4  1  0
M  END
> <meeko>
{"is_sidechain": false}

> <source_group>
CHRFAM7A at A face

> <source_system>
CHRNA7_encenicline

> <source_run>
hybrid_A_face_seed4409_ex32

> <source_seed>
4409

> <vina_pose_rank>
3

> <vina_affinity_kcal_mol>
-7.4329999999999998

> <vina_rmsd_to_crystal_angstrom>
4.9123000000000001

> <minimizedAffinity>
-7.43793

> <CNNscore>
0.7390137315

> <CNNaffinity>
6.3593525887

> <CNN_VS>
4.6996488571

> <CNNaffinity_variance>
0.2268759459

$$$$
CHRNA7_encenicline__hybrid_A_face_seed4409_ex32__pose04


 22 25  0  0  0  0  0  0  0  0999 V2000
  142.1340  140.1930   90.8160 O   0  0  0  0  0  0  0  0  0  0  0  0
  142.1870  139.0280   90.6060 C   0  0  0  0  0  0  0  0  0  0  0  0
  140.9720  138.2940   90.3110 N   0  0  0  0  0  0  0  0  0  0  0  0
  141.0080  137.3260   90.1340 H   0  0  0  0  0  0  0  0  0  0  0  0
  143.5410  138.3120   90.6450 C   0  0  0  0  0  0  0  0  0  0  0  0
  144.6750  138.7300   90.0380 C   0  0  0  0  0  0  0  0  0  0  0  0
  145.8740  137.9510   90.1660 C   0  0  0  0  0  0  0  0  0  0  0  0
  147.0960  138.2350   89.6180 C   0  0  0  0  0  0  0  0  0  0  0  0
  148.1750  137.3760   89.8310 C   0  0  0  0  0  0  0  0  0  0  0  0
  148.0060  136.2170   90.6090 C   0  0  0  0  0  0  0  0  0  0  0  0
  146.7610  135.9210   91.1720 C   0  0  0  0  0  0  0  0  0  0  0  0
  146.5540  134.4510   92.1590 Cl  0  0  0  0  0  0  0  0  0  0  0  0
  145.6980  136.7660   90.9630 C   0  0  0  0  0  0  0  0  0  0  0  0
  143.9490  136.8260   91.4550 S   0  0  0  0  0  0  0  0  0  0  0  0
  139.6770  139.0100   90.2800 C   0  0  0  0  0  0  0  0  0  0  0  0
  139.3720  139.4810   88.8440 C   0  0  0  0  0  0  0  0  0  0  0  0
  138.1620  138.9530   88.3850 N   0  0  0  0  0  0  0  0  0  0  0  0
  137.1300  139.3220   89.2200 C   0  0  0  0  0  0  0  0  0  0  0  0
  137.3570  138.8310   90.6200 C   0  0  0  0  0  0  0  0  0  0  0  0
  138.6020  138.1190   90.7060 C   0  0  0  0  0  0  0  0  0  0  0  0
  138.5500  136.9880   89.7840 C   0  0  0  0  0  0  0  0  0  0  0  0
  138.2450  137.5400   88.3400 C   0  0  0  0  0  0  0  0  0  0  0  0
  1  2  2  0
  2  3  1  0
  3 15  1  0
 15 16  1  0
 16 17  1  0
 17 18  1  0
 18 19  1  0
 19 20  1  0
 20 21  1  0
 21 22  1  0
  2  5  1  0
  5  6  2  0
  6  7  1  0
  7  8  2  0
  8  9  1  0
  9 10  2  0
 10 11  1  0
 11 12  1  0
 11 13  2  0
 13 14  1  0
 20 15  1  0
 14  5  1  0
 22 17  1  0
 13  7  1  0
  3  4  1  0
M  END
> <meeko>
{"is_sidechain": false}

> <source_group>
CHRFAM7A at A face

> <source_system>
CHRNA7_encenicline

> <source_run>
hybrid_A_face_seed4409_ex32

> <source_seed>
4409

> <vina_pose_rank>
4

> <vina_affinity_kcal_mol>
-7.3730000000000002

> <vina_rmsd_to_crystal_angstrom>
2.5657999999999999

> <minimizedAffinity>
-7.39648

> <CNNscore>
0.9475897551

> <CNNaffinity>
6.7994732857

> <CNN_VS>
6.4431114197

> <CNNaffinity_variance>
0.3757517338

$$$$
CHRNA7_encenicline__hybrid_A_face_seed4409_ex32__pose05


 22 25  0  0  0  0  0  0  0  0999 V2000
  144.8100  139.7430   91.3400 O   0  0  0  0  0  0  0  0  0  0  0  0
  144.3100  138.6740   91.2350 C   0  0  0  0  0  0  0  0  0  0  0  0
  145.0910  137.4840   91.5110 N   0  0  0  0  0  0  0  0  0  0  0  0
  144.6830  136.5920   91.4290 H   0  0  0  0  0  0  0  0  0  0  0  0
  142.8410  138.5620   90.8130 C   0  0  0  0  0  0  0  0  0  0  0  0
  142.1000  137.4300   90.8210 C   0  0  0  0  0  0  0  0  0  0  0  0
  140.7290  137.4810   90.3960 C   0  0  0  0  0  0  0  0  0  0  0  0
  139.8500  136.4330   90.3480 C   0  0  0  0  0  0  0  0  0  0  0  0
  138.5410  136.6380   89.9090 C   0  0  0  0  0  0  0  0  0  0  0  0
  138.1260  137.9220   89.5160 C   0  0  0  0  0  0  0  0  0  0  0  0
  139.0190  138.9970   89.5640 C   0  0  0  0  0  0  0  0  0  0  0  0
  138.4850  140.6240   89.0670 Cl  0  0  0  0  0  0  0  0  0  0  0  0
  140.3080  138.7970   89.9960 C   0  0  0  0  0  0  0  0  0  0  0  0
  141.7900  139.8230   90.2330 S   0  0  0  0  0  0  0  0  0  0  0  0
  146.5080  137.6210   91.9180 C   0  0  0  0  0  0  0  0  0  0  0  0
  146.9850  136.3250   92.6040 C   0  0  0  0  0  0  0  0  0  0  0  0
  148.0800  135.7720   91.9340 N   0  0  0  0  0  0  0  0  0  0  0  0
  149.1180  136.6760   91.8830 C   0  0  0  0  0  0  0  0  0  0  0  0
  148.7150  137.9330   91.1690 C   0  0  0  0  0  0  0  0  0  0  0  0
  147.3460  137.8510   90.7450 C   0  0  0  0  0  0  0  0  0  0  0  0
  147.2080  136.7040   89.8500 C   0  0  0  0  0  0  0  0  0  0  0  0
  147.7030  135.4180   90.6150 C   0  0  0  0  0  0  0  0  0  0  0  0
  1  2  2  0
  2  3  1  0
  3 15  1  0
 15 16  1  0
 16 17  1  0
 17 18  1  0
 18 19  1  0
 19 20  1  0
 20 21  1  0
 21 22  1  0
  2  5  1  0
  5  6  2  0
  6  7  1  0
  7  8  2  0
  8  9  1  0
  9 10  2  0
 10 11  1  0
 11 12  1  0
 11 13  2  0
 13 14  1  0
 20 15  1  0
 14  5  1  0
 22 17  1  0
 13  7  1  0
  3  4  1  0
M  END
> <meeko>
{"is_sidechain": false}

> <source_group>
CHRFAM7A at A face

> <source_system>
CHRNA7_encenicline

> <source_run>
hybrid_A_face_seed4409_ex32

> <source_seed>
4409

> <vina_pose_rank>
5

> <vina_affinity_kcal_mol>
-6.5369999999999999

> <vina_rmsd_to_crystal_angstrom>
7.6376999999999997

> <minimizedAffinity>
-6.63231

> <CNNscore>
0.1993525326

> <CNNaffinity>
4.9930500984

> <CNN_VS>
0.9953771830

> <CNNaffinity_variance>
0.3763075173

$$$$
CHRNA7_encenicline__hybrid_A_face_seed4409_ex32__pose06


 22 25  0  0  0  0  0  0  0  0999 V2000
  144.2820  141.9990   92.6490 O   0  0  0  0  0  0  0  0  0  0  0  0
  143.9040  141.0450   93.2400 C   0  0  0  0  0  0  0  0  0  0  0  0
  142.9250  141.1960   94.2990 N   0  0  0  0  0  0  0  0  0  0  0  0
  142.6040  140.4080   94.7940 H   0  0  0  0  0  0  0  0  0  0  0  0
  144.4500  139.6610   92.8740 C   0  0  0  0  0  0  0  0  0  0  0  0
  143.7080  138.5780   92.5460 C   0  0  0  0  0  0  0  0  0  0  0  0
  144.3650  137.3430   92.2240 C   0  0  0  0  0  0  0  0  0  0  0  0
  143.7620  136.1650   91.8720 C   0  0  0  0  0  0  0  0  0  0  0  0
  144.5380  135.0410   91.5870 C   0  0  0  0  0  0  0  0  0  0  0  0
  145.9400  135.1180   91.6620 C   0  0  0  0  0  0  0  0  0  0  0  0
  146.5610  136.3180   92.0190 C   0  0  0  0  0  0  0  0  0  0  0  0
  148.3400  136.4100   92.1100 Cl  0  0  0  0  0  0  0  0  0  0  0  0
  145.7990  137.4260   92.3010 C   0  0  0  0  0  0  0  0  0  0  0  0
  146.1120  139.1480   92.7920 S   0  0  0  0  0  0  0  0  0  0  0  0
  142.4130  142.5450   94.6320 C   0  0  0  0  0  0  0  0  0  0  0  0
  140.9130  142.6360   94.2910 C   0  0  0  0  0  0  0  0  0  0  0  0
  140.1560  142.9620   95.4190 N   0  0  0  0  0  0  0  0  0  0  0  0
  140.5820  144.1600   95.9520 C   0  0  0  0  0  0  0  0  0  0  0  0
  142.0250  144.0970   96.3560 C   0  0  0  0  0  0  0  0  0  0  0  0
  142.5730  142.8020   96.0600 C   0  0  0  0  0  0  0  0  0  0  0  0
  141.8070  141.7990   96.7960 C   0  0  0  0  0  0  0  0  0  0  0  0
  140.2900  141.9430   96.3930 C   0  0  0  0  0  0  0  0  0  0  0  0
  1  2  2  0
  2  3  1  0
  3 15  1  0
 15 16  1  0
 16 17  1  0
 17 18  1  0
 18 19  1  0
 19 20  1  0
 20 21  1  0
 21 22  1  0
  2  5  1  0
  5  6  2  0
  6  7  1  0
  7  8  2  0
  8  9  1  0
  9 10  2  0
 10 11  1  0
 11 12  1  0
 11 13  2  0
 13 14  1  0
 20 15  1  0
 14  5  1  0
 22 17  1  0
 13  7  1  0
  3  4  1  0
M  END
> <meeko>
{"is_sidechain": false}

> <source_group>
CHRFAM7A at A face

> <source_system>
CHRNA7_encenicline

> <source_run>
hybrid_A_face_seed4409_ex32

> <source_seed>
4409

> <vina_pose_rank>
6

> <vina_affinity_kcal_mol>
-6.3840000000000003

> <vina_rmsd_to_crystal_angstrom>
4.9245000000000001

> <minimizedAffinity>
-6.38337

> <CNNscore>
0.2164309472

> <CNNaffinity>
5.0727686882

> <CNN_VS>
1.0979040861

> <CNNaffinity_variance>
0.7855379581

$$$$
CHRNA7_encenicline__hybrid_A_face_seed4409_ex32__pose07


 22 25  0  0  0  0  0  0  0  0999 V2000
  144.4110  140.2860   90.4120 O   0  0  0  0  0  0  0  0  0  0  0  0
  144.0320  139.1790   90.5940 C   0  0  0  0  0  0  0  0  0  0  0  0
  144.9830  138.1390   90.9340 N   0  0  0  0  0  0  0  0  0  0  0  0
  144.6750  137.2170   91.0890 H   0  0  0  0  0  0  0  0  0  0  0  0
  142.5380  138.8600   90.4700 C   0  0  0  0  0  0  0  0  0  0  0  0
  141.5630  139.7430   90.1540 C   0  0  0  0  0  0  0  0  0  0  0  0
  140.2030  139.2950   90.0740 C   0  0  0  0  0  0  0  0  0  0  0  0
  139.1070  140.0570   89.7650 C   0  0  0  0  0  0  0  0  0  0  0  0
  137.8390  139.4760   89.7270 C   0  0  0  0  0  0  0  0  0  0  0  0
  137.6860  138.1070   90.0060 C   0  0  0  0  0  0  0  0  0  0  0  0
  138.8000  137.3230   90.3200 C   0  0  0  0  0  0  0  0  0  0  0  0
  138.5990  135.5860   90.6700 Cl  0  0  0  0  0  0  0  0  0  0  0  0
  140.0490  137.8930   90.3580 C   0  0  0  0  0  0  0  0  0  0  0  0
  141.7430  137.3280   90.7000 S   0  0  0  0  0  0  0  0  0  0  0  0
  146.4210  138.4740   91.0470 C   0  0  0  0  0  0  0  0  0  0  0  0
  147.0720  137.6290   92.1590 C   0  0  0  0  0  0  0  0  0  0  0  0
  148.1270  136.8610   91.6590 N   0  0  0  0  0  0  0  0  0  0  0  0
  149.0780  137.6730   91.0800 C   0  0  0  0  0  0  0  0  0  0  0  0
  148.5000  138.4720   89.9490 C   0  0  0  0  0  0  0  0  0  0  0  0
  147.1030  138.1790   89.7900 C   0  0  0  0  0  0  0  0  0  0  0  0
  146.9600  136.7510   89.5150 C   0  0  0  0  0  0  0  0  0  0  0  0
  147.6370  135.9510   90.6910 C   0  0  0  0  0  0  0  0  0  0  0  0
  1  2  2  0
  2  3  1  0
  3 15  1  0
 15 16  1  0
 16 17  1  0
 17 18  1  0
 18 19  1  0
 19 20  1  0
 20 21  1  0
 21 22  1  0
  2  5  1  0
  5  6  2  0
  6  7  1  0
  7  8  2  0
  8  9  1  0
  9 10  2  0
 10 11  1  0
 11 12  1  0
 11 13  2  0
 13 14  1  0
 20 15  1  0
 14  5  1  0
 22 17  1  0
 13  7  1  0
  3  4  1  0
M  END
> <meeko>
{"is_sidechain": false}

> <source_group>
CHRFAM7A at A face

> <source_system>
CHRNA7_encenicline

> <source_run>
hybrid_A_face_seed4409_ex32

> <source_seed>
4409

> <vina_pose_rank>
7

> <vina_affinity_kcal_mol>
-6.3540000000000001

> <vina_rmsd_to_crystal_angstrom>
7.5803000000000003

> <minimizedAffinity>
-6.36510

> <CNNscore>
0.3501272500

> <CNNaffinity>
5.5667877197

> <CNN_VS>
1.9490840435

> <CNNaffinity_variance>
0.3369503021

$$$$
CHRNA7_encenicline__hybrid_A_face_seed4409_ex32__pose08


 22 25  0  0  0  0  0  0  0  0999 V2000
  143.9070  140.8630   91.3690 O   0  0  0  0  0  0  0  0  0  0  0  0
  143.7020  140.1320   90.4600 C   0  0  0  0  0  0  0  0  0  0  0  0
  144.6710  140.0280   89.3860 N   0  0  0  0  0  0  0  0  0  0  0  0
  144.5080  139.4210   88.6290 H   0  0  0  0  0  0  0  0  0  0  0  0
  142.4150  139.3010   90.4320 C   0  0  0  0  0  0  0  0  0  0  0  0
  142.3380  137.9560   90.5560 C   0  0  0  0  0  0  0  0  0  0  0  0
  141.0550  137.3140   90.5120 C   0  0  0  0  0  0  0  0  0  0  0  0
  140.8090  135.9710   90.6230 C   0  0  0  0  0  0  0  0  0  0  0  0
  139.4990  135.4940   90.5590 C   0  0  0  0  0  0  0  0  0  0  0  0
  138.4320  136.3910   90.3810 C   0  0  0  0  0  0  0  0  0  0  0  0
  138.6770  137.7630   90.2680 C   0  0  0  0  0  0  0  0  0  0  0  0
  137.3190  138.8970   90.0440 Cl  0  0  0  0  0  0  0  0  0  0  0  0
  139.9660  138.2360   90.3300 C   0  0  0  0  0  0  0  0  0  0  0  0
  140.7780  139.8600   90.2400 S   0  0  0  0  0  0  0  0  0  0  0  0
  145.9060  140.8430   89.4380 C   0  0  0  0  0  0  0  0  0  0  0  0
  147.0340  140.0430   90.1200 C   0  0  0  0  0  0  0  0  0  0  0  0
  148.1370  139.9010   89.2740 N   0  0  0  0  0  0  0  0  0  0  0  0
  148.6120  141.1380   88.8940 C   0  0  0  0  0  0  0  0  0  0  0  0
  147.5630  141.9290   88.1710 C   0  0  0  0  0  0  0  0  0  0  0  0
  146.3400  141.1800   88.0860 C   0  0  0  0  0  0  0  0  0  0  0  0
  146.6100  139.9380   87.3660 C   0  0  0  0  0  0  0  0  0  0  0  0
  147.7610  139.1700   88.1200 C   0  0  0  0  0  0  0  0  0  0  0  0
  1  2  2  0
  2  3  1  0
  3 15  1  0
 15 16  1  0
 16 17  1  0
 17 18  1  0
 18 19  1  0
 19 20  1  0
 20 21  1  0
 21 22  1  0
  2  5  1  0
  5  6  2  0
  6  7  1  0
  7  8  2  0
  8  9  1  0
  9 10  2  0
 10 11  1  0
 11 12  1  0
 11 13  2  0
 13 14  1  0
 20 15  1  0
 14  5  1  0
 22 17  1  0
 13  7  1  0
  3  4  1  0
M  END
> <meeko>
{"is_sidechain": false}

> <source_group>
CHRFAM7A at A face

> <source_system>
CHRNA7_encenicline

> <source_run>
hybrid_A_face_seed4409_ex32

> <source_seed>
4409

> <vina_pose_rank>
8

> <vina_affinity_kcal_mol>
-6.3250000000000002

> <vina_rmsd_to_crystal_angstrom>
6.7858999999999998

> <minimizedAffinity>
-6.34574

> <CNNscore>
0.4052770436

> <CNNaffinity>
5.3986458778

> <CNN_VS>
2.1879472733

> <CNNaffinity_variance>
0.1649079919

$$$$
CHRNA7_encenicline__hybrid_A_face_seed4409_ex32__pose09


 22 25  0  0  0  0  0  0  0  0999 V2000
  146.2560  140.4980   92.4340 O   0  0  0  0  0  0  0  0  0  0  0  0
  145.1850  139.9960   92.4720 C   0  0  0  0  0  0  0  0  0  0  0  0
  145.0030  138.6480   91.9680 N   0  0  0  0  0  0  0  0  0  0  0  0
  144.1160  138.2230   91.9980 H   0  0  0  0  0  0  0  0  0  0  0  0
  144.0020  140.7750   93.0580 C   0  0  0  0  0  0  0  0  0  0  0  0
  142.8980  141.1660   92.3800 C   0  0  0  0  0  0  0  0  0  0  0  0
  141.8680  141.8910   93.0670 C   0  0  0  0  0  0  0  0  0  0  0  0
  140.6960  142.3530   92.5290 C   0  0  0  0  0  0  0  0  0  0  0  0
  139.7870  143.0470   93.3280 C   0  0  0  0  0  0  0  0  0  0  0  0
  140.0730  143.2730   94.6850 C   0  0  0  0  0  0  0  0  0  0  0  0
  141.2670  142.8030   95.2410 C   0  0  0  0  0  0  0  0  0  0  0  0
  141.6240  143.0910   96.9640 Cl  0  0  0  0  0  0  0  0  0  0  0  0
  142.1640  142.1190   94.4560 C   0  0  0  0  0  0  0  0  0  0  0  0
  143.7880  141.3370   94.6920 S   0  0  0  0  0  0  0  0  0  0  0  0
  146.1620  137.9180   91.4070 C   0  0  0  0  0  0  0  0  0  0  0  0
  146.6680  136.8750   92.4240 C   0  0  0  0  0  0  0  0  0  0  0  0
  146.6330  135.5860   91.8860 N   0  0  0  0  0  0  0  0  0  0  0  0
  147.3970  135.5230   90.7410 C   0  0  0  0  0  0  0  0  0  0  0  0
  146.9020  136.4810   89.6990 C   0  0  0  0  0  0  0  0  0  0  0  0
  145.7690  137.2150   90.1900 C   0  0  0  0  0  0  0  0  0  0  0  0
  144.7160  136.2620   90.5290 C   0  0  0  0  0  0  0  0  0  0  0  0
  145.2960  135.2350   91.5750 C   0  0  0  0  0  0  0  0  0  0  0  0
  1  2  2  0
  2  3  1  0
  3 15  1  0
 15 16  1  0
 16 17  1  0
 17 18  1  0
 18 19  1  0
 19 20  1  0
 20 21  1  0
 21 22  1  0
  2  5  1  0
  5  6  2  0
  6  7  1  0
  7  8  2  0
  8  9  1  0
  9 10  2  0
 10 11  1  0
 11 12  1  0
 11 13  2  0
 13 14  1  0
 20 15  1  0
 14  5  1  0
 22 17  1  0
 13  7  1  0
  3  4  1  0
M  END
> <meeko>
{"is_sidechain": false}

> <source_group>
CHRFAM7A at A face

> <source_system>
CHRNA7_encenicline

> <source_run>
hybrid_A_face_seed4409_ex32

> <source_seed>
4409

> <vina_pose_rank>
9

> <vina_affinity_kcal_mol>
-6.3129999999999997

> <vina_rmsd_to_crystal_angstrom>
7.8305999999999996

> <minimizedAffinity>
-6.31709

> <CNNscore>
0.0835234746

> <CNNaffinity>
4.2650933266

> <CNN_VS>
0.3562354147

> <CNNaffinity_variance>
0.3766706884

$$$$
CHRNA7_encenicline__hybrid_A_face_seed4409_ex32__pose10


 22 25  0  0  0  0  0  0  0  0999 V2000
  144.7480  138.9630   91.6850 O   0  0  0  0  0  0  0  0  0  0  0  0
  144.1780  139.1360   90.6610 C   0  0  0  0  0  0  0  0  0  0  0  0
  144.8840  139.7060   89.5310 N   0  0  0  0  0  0  0  0  0  0  0  0
  144.4180  139.8510   88.6760 H   0  0  0  0  0  0  0  0  0  0  0  0
  142.6990  138.7510   90.5430 C   0  0  0  0  0  0  0  0  0  0  0  0
  141.6820  139.5960   90.2560 C   0  0  0  0  0  0  0  0  0  0  0  0
  140.3430  139.0870   90.1760 C   0  0  0  0  0  0  0  0  0  0  0  0
  139.2110  139.8050   89.8950 C   0  0  0  0  0  0  0  0  0  0  0  0
  137.9710  139.1670   89.8540 C   0  0  0  0  0  0  0  0  0  0  0  0
  137.8820  137.7860   90.1020 C   0  0  0  0  0  0  0  0  0  0  0  0
  139.0340  137.0470   90.3880 C   0  0  0  0  0  0  0  0  0  0  0  0
  138.9160  135.2960   90.6990 Cl  0  0  0  0  0  0  0  0  0  0  0  0
  140.2570  137.6740   90.4290 C   0  0  0  0  0  0  0  0  0  0  0  0
  141.9780  137.1800   90.7430 S   0  0  0  0  0  0  0  0  0  0  0  0
  146.3130  140.0690   89.6720 C   0  0  0  0  0  0  0  0  0  0  0  0
  147.1940  139.0240   88.9590 C   0  0  0  0  0  0  0  0  0  0  0  0
  147.9830  139.6160   87.9700 N   0  0  0  0  0  0  0  0  0  0  0  0
  148.7820  140.5960   88.5180 C   0  0  0  0  0  0  0  0  0  0  0  0
  147.9620  141.6690   89.1710 C   0  0  0  0  0  0  0  0  0  0  0  0
  146.5620  141.3700   89.0570 C   0  0  0  0  0  0  0  0  0  0  0  0
  146.2240  141.2800   87.6390 C   0  0  0  0  0  0  0  0  0  0  0  0
  147.1510  140.1910   86.9780 C   0  0  0  0  0  0  0  0  0  0  0  0
  1  2  2  0
  2  3  1  0
  3 15  1  0
 15 16  1  0
 16 17  1  0
 17 18  1  0
 18 19  1  0
 19 20  1  0
 20 21  1  0
 21 22  1  0
  2  5  1  0
  5  6  2  0
  6  7  1  0
  7  8  2  0
  8  9  1  0
  9 10  2  0
 10 11  1  0
 11 12  1  0
 11 13  2  0
 13 14  1  0
 20 15  1  0
 14  5  1  0
 22 17  1  0
 13  7  1  0
  3  4  1  0
M  END
> <meeko>
{"is_sidechain": false}

> <source_group>
CHRFAM7A at A face

> <source_system>
CHRNA7_encenicline

> <source_run>
hybrid_A_face_seed4409_ex32

> <source_seed>
4409

> <vina_pose_rank>
10

> <vina_affinity_kcal_mol>
-6.2969999999999997

> <vina_rmsd_to_crystal_angstrom>
6.9939999999999998

> <minimizedAffinity>
-6.29452

> <CNNscore>
0.5162774324

> <CNNaffinity>
5.9602980614

> <CNN_VS>
3.0771672726

> <CNNaffinity_variance>
0.1447280794

$$$$
CHRNA7_encenicline__hybrid_A_face_seed4409_ex32__pose11


 22 25  0  0  0  0  0  0  0  0999 V2000
  146.1020  140.3120   93.0600 O   0  0  0  0  0  0  0  0  0  0  0  0
  145.0120  139.8710   92.9240 C   0  0  0  0  0  0  0  0  0  0  0  0
  144.8190  138.6450   92.1740 N   0  0  0  0  0  0  0  0  0  0  0  0
  143.9160  138.2710   92.0580 H   0  0  0  0  0  0  0  0  0  0  0  0
  143.8160  140.6010   93.5460 C   0  0  0  0  0  0  0  0  0  0  0  0
  143.5020  140.6270   94.8620 C   0  0  0  0  0  0  0  0  0  0  0  0
  142.3470  141.3580   95.2970 C   0  0  0  0  0  0  0  0  0  0  0  0
  141.8970  141.4840   96.5850 C   0  0  0  0  0  0  0  0  0  0  0  0
  140.7500  142.2310   96.8550 C   0  0  0  0  0  0  0  0  0  0  0  0
  140.0560  142.8550   95.8040 C   0  0  0  0  0  0  0  0  0  0  0  0
  140.5100  142.7320   94.4880 C   0  0  0  0  0  0  0  0  0  0  0  0
  139.6260  143.5280   93.1600 Cl  0  0  0  0  0  0  0  0  0  0  0  0
  141.6390  141.9960   94.2200 C   0  0  0  0  0  0  0  0  0  0  0  0
  142.5990  141.5500   92.7420 S   0  0  0  0  0  0  0  0  0  0  0  0
  145.9910  137.9600   91.5840 C   0  0  0  0  0  0  0  0  0  0  0  0
  146.5090  136.8770   92.5510 C   0  0  0  0  0  0  0  0  0  0  0  0
  146.4960  135.6150   91.9510 N   0  0  0  0  0  0  0  0  0  0  0  0
  147.2650  135.6190   90.8080 C   0  0  0  0  0  0  0  0  0  0  0  0
  146.7590  136.6190   89.8110 C   0  0  0  0  0  0  0  0  0  0  0  0
  145.6130  137.3110   90.3320 C   0  0  0  0  0  0  0  0  0  0  0  0
  144.5730  136.3270   90.6210 C   0  0  0  0  0  0  0  0  0  0  0  0
  145.1660  135.2600   91.6180 C   0  0  0  0  0  0  0  0  0  0  0  0
  1  2  2  0
  2  3  1  0
  3 15  1  0
 15 16  1  0
 16 17  1  0
 17 18  1  0
 18 19  1  0
 19 20  1  0
 20 21  1  0
 21 22  1  0
  2  5  1  0
  5  6  2  0
  6  7  1  0
  7  8  2  0
  8  9  1  0
  9 10  2  0
 10 11  1  0
 11 12  1  0
 11 13  2  0
 13 14  1  0
 20 15  1  0
 14  5  1  0
 22 17  1  0
 13  7  1  0
  3  4  1  0
M  END
> <meeko>
{"is_sidechain": false}

> <source_group>
CHRFAM7A at A face

> <source_system>
CHRNA7_encenicline

> <source_run>
hybrid_A_face_seed4409_ex32

> <source_seed>
4409

> <vina_pose_rank>
11

> <vina_affinity_kcal_mol>
-6.2080000000000002

> <vina_rmsd_to_crystal_angstrom>
7.8826000000000001

> <minimizedAffinity>
-6.22254

> <CNNscore>
0.0884906948

> <CNNaffinity>
4.2949109077

> <CNN_VS>
0.3800596595

> <CNNaffinity_variance>
0.4603357315

$$$$
CHRNA7_encenicline__hybrid_A_face_seed4409_ex32__pose12


 22 25  0  0  0  0  0  0  0  0999 V2000
  140.2630  140.8030   85.9700 O   0  0  0  0  0  0  0  0  0  0  0  0
  141.1500  140.3930   86.6380 C   0  0  0  0  0  0  0  0  0  0  0  0
  140.8690  139.8440   87.9510 N   0  0  0  0  0  0  0  0  0  0  0  0
  141.6010  139.4990   88.5110 H   0  0  0  0  0  0  0  0  0  0  0  0
  142.5870  140.4420   86.1050 C   0  0  0  0  0  0  0  0  0  0  0  0
  143.6970  140.0820   86.7890 C   0  0  0  0  0  0  0  0  0  0  0  0
  144.9810  140.1820   86.1540 C   0  0  0  0  0  0  0  0  0  0  0  0
  146.1920  139.8570   86.7050 C   0  0  0  0  0  0  0  0  0  0  0  0
  147.3620  140.0110   85.9600 C   0  0  0  0  0  0  0  0  0  0  0  0
  147.2970  140.4990   84.6430 C   0  0  0  0  0  0  0  0  0  0  0  0
  146.0630  140.8310   84.0750 C   0  0  0  0  0  0  0  0  0  0  0  0
  145.9870  141.4480   82.4040 Cl  0  0  0  0  0  0  0  0  0  0  0  0
  144.9100  140.6810   84.8070 C   0  0  0  0  0  0  0  0  0  0  0  0
  143.1340  140.9600   84.5360 S   0  0  0  0  0  0  0  0  0  0  0  0
  139.4730  139.8080   88.4410 C   0  0  0  0  0  0  0  0  0  0  0  0
  138.7640  138.5440   87.9150 C   0  0  0  0  0  0  0  0  0  0  0  0
  138.2920  137.7540   88.9660 N   0  0  0  0  0  0  0  0  0  0  0  0
  137.4240  138.4750   89.7560 C   0  0  0  0  0  0  0  0  0  0  0  0
  138.0910  139.6850   90.3400 C   0  0  0  0  0  0  0  0  0  0  0  0
  139.4560  139.7660   89.9000 C   0  0  0  0  0  0  0  0  0  0  0  0
  140.1520  138.5570   90.3340 C   0  0  0  0  0  0  0  0  0  0  0  0
  139.3820  137.3100   89.7550 C   0  0  0  0  0  0  0  0  0  0  0  0
  1  2  2  0
  2  3  1  0
  3 15  1  0
 15 16  1  0
 16 17  1  0
 17 18  1  0
 18 19  1  0
 19 20  1  0
 20 21  1  0
 21 22  1  0
  2  5  1  0
  5  6  2  0
  6  7  1  0
  7  8  2  0
  8  9  1  0
  9 10  2  0
 10 11  1  0
 11 12  1  0
 11 13  2  0
 13 14  1  0
 20 15  1  0
 14  5  1  0
 22 17  1  0
 13  7  1  0
  3  4  1  0
M  END
> <meeko>
{"is_sidechain": false}

> <source_group>
CHRFAM7A at A face

> <source_system>
CHRNA7_encenicline

> <source_run>
hybrid_A_face_seed4409_ex32

> <source_seed>
4409

> <vina_pose_rank>
12

> <vina_affinity_kcal_mol>
-6.0940000000000003

> <vina_rmsd_to_crystal_angstrom>
5.9043999999999999

> <minimizedAffinity>
-6.15541

> <CNNscore>
0.8456559777

> <CNNaffinity>
6.6823201180

> <CNN_VS>
5.6509437561

> <CNNaffinity_variance>
0.2382309437

$$$$
CHRNA7_encenicline__hybrid_A_face_seed4409_ex32__pose13


 22 25  0  0  0  0  0  0  0  0999 V2000
  141.4430  136.4110   90.8320 O   0  0  0  0  0  0  0  0  0  0  0  0
  141.8950  137.4950   90.6740 C   0  0  0  0  0  0  0  0  0  0  0  0
  141.0170  138.6000   90.3420 N   0  0  0  0  0  0  0  0  0  0  0  0
  141.3840  139.5040   90.2120 H   0  0  0  0  0  0  0  0  0  0  0  0
  143.4040  137.7170   90.8280 C   0  0  0  0  0  0  0  0  0  0  0  0
  144.3730  136.8490   90.4550 C   0  0  0  0  0  0  0  0  0  0  0  0
  145.7500  137.1990   90.6620 C   0  0  0  0  0  0  0  0  0  0  0  0
  146.8430  136.4380   90.3410 C   0  0  0  0  0  0  0  0  0  0  0  0
  148.1270  136.9140   90.6050 C   0  0  0  0  0  0  0  0  0  0  0  0
  148.3000  138.1750   91.2010 C   0  0  0  0  0  0  0  0  0  0  0  0
  147.1890  138.9570   91.5300 C   0  0  0  0  0  0  0  0  0  0  0  0
  147.4150  140.5560   92.2850 Cl  0  0  0  0  0  0  0  0  0  0  0  0
  145.9230  138.4900   91.2710 C   0  0  0  0  0  0  0  0  0  0  0  0
  144.2240  139.0970   91.5000 S   0  0  0  0  0  0  0  0  0  0  0  0
  139.5630  138.3580   90.2000 C   0  0  0  0  0  0  0  0  0  0  0  0
  138.7770  139.6080   90.6400 C   0  0  0  0  0  0  0  0  0  0  0  0
  137.9710  140.0890   89.6050 N   0  0  0  0  0  0  0  0  0  0  0  0
  137.0910  139.1130   89.1890 C   0  0  0  0  0  0  0  0  0  0  0  0
  137.8160  137.8970   88.6940 C   0  0  0  0  0  0  0  0  0  0  0  0
  139.2370  138.0810   88.8040 C   0  0  0  0  0  0  0  0  0  0  0  0
  139.6140  139.2440   88.0050 C   0  0  0  0  0  0  0  0  0  0  0  0
  138.7820  140.4830   88.5120 C   0  0  0  0  0  0  0  0  0  0  0  0
  1  2  2  0
  2  3  1  0
  3 15  1  0
 15 16  1  0
 16 17  1  0
 17 18  1  0
 18 19  1  0
 19 20  1  0
 20 21  1  0
 21 22  1  0
  2  5  1  0
  5  6  2  0
  6  7  1  0
  7  8  2  0
  8  9  1  0
  9 10  2  0
 10 11  1  0
 11 12  1  0
 11 13  2  0
 13 14  1  0
 20 15  1  0
 14  5  1  0
 22 17  1  0
 13  7  1  0
  3  4  1  0
M  END
> <meeko>
{"is_sidechain": false}

> <source_group>
CHRFAM7A at A face

> <source_system>
CHRNA7_encenicline

> <source_run>
hybrid_A_face_seed4409_ex32

> <source_seed>
4409

> <vina_pose_rank>
13

> <vina_affinity_kcal_mol>
-6.0759999999999996

> <vina_rmsd_to_crystal_angstrom>
2.9655

> <minimizedAffinity>
-6.08910

> <CNNscore>
0.4408673942

> <CNNaffinity>
6.0503234863

> <CNN_VS>
2.6673903465

> <CNNaffinity_variance>
0.5090500712

$$$$
CHRNA7_encenicline__hybrid_A_face_seed4409_ex32__pose14


 22 25  0  0  0  0  0  0  0  0999 V2000
  139.9360  139.0930   90.1860 O   0  0  0  0  0  0  0  0  0  0  0  0
  140.4510  140.1290   90.4380 C   0  0  0  0  0  0  0  0  0  0  0  0
  141.8650  140.1730   90.7570 N   0  0  0  0  0  0  0  0  0  0  0  0
  142.3000  141.0300   90.9650 H   0  0  0  0  0  0  0  0  0  0  0  0
  139.6160  141.4140   90.4200 C   0  0  0  0  0  0  0  0  0  0  0  0
  139.5290  142.3160   91.4250 C   0  0  0  0  0  0  0  0  0  0  0  0
  138.7040  143.4790   91.2610 C   0  0  0  0  0  0  0  0  0  0  0  0
  138.5110  144.4800   92.1760 C   0  0  0  0  0  0  0  0  0  0  0  0
  137.6730  145.5530   91.8710 C   0  0  0  0  0  0  0  0  0  0  0  0
  137.0250  145.6070   90.6250 C   0  0  0  0  0  0  0  0  0  0  0  0
  137.2180  144.5880   89.6870 C   0  0  0  0  0  0  0  0  0  0  0  0
  136.3960  144.6630   88.1070 Cl  0  0  0  0  0  0  0  0  0  0  0  0
  138.0430  143.5300   89.9840 C   0  0  0  0  0  0  0  0  0  0  0  0
  138.6010  142.0190   89.1420 S   0  0  0  0  0  0  0  0  0  0  0  0
  142.6480  138.9160   90.7680 C   0  0  0  0  0  0  0  0  0  0  0  0
  143.7280  138.9610   89.6680 C   0  0  0  0  0  0  0  0  0  0  0  0
  145.0070  138.8060   90.2080 N   0  0  0  0  0  0  0  0  0  0  0  0
  145.0960  137.6140   90.8950 C   0  0  0  0  0  0  0  0  0  0  0  0
  144.1010  137.5520   92.0160 C   0  0  0  0  0  0  0  0  0  0  0  0
  143.3150  138.7540   92.0560 C   0  0  0  0  0  0  0  0  0  0  0  0
  144.2160  139.8870   92.2530 C   0  0  0  0  0  0  0  0  0  0  0  0
  145.2830  139.8770   91.0930 C   0  0  0  0  0  0  0  0  0  0  0  0
  1  2  2  0
  2  3  1  0
  3 15  1  0
 15 16  1  0
 16 17  1  0
 17 18  1  0
 18 19  1  0
 19 20  1  0
 20 21  1  0
 21 22  1  0
  2  5  1  0
  5  6  2  0
  6  7  1  0
  7  8  2  0
  8  9  1  0
  9 10  2  0
 10 11  1  0
 11 12  1  0
 11 13  2  0
 13 14  1  0
 20 15  1  0
 14  5  1  0
 22 17  1  0
 13  7  1  0
  3  4  1  0
M  END
> <meeko>
{"is_sidechain": false}

> <source_group>
CHRFAM7A at A face

> <source_system>
CHRNA7_encenicline

> <source_run>
hybrid_A_face_seed4409_ex32

> <source_seed>
4409

> <vina_pose_rank>
14

> <vina_affinity_kcal_mol>
-5.9960000000000004

> <vina_rmsd_to_crystal_angstrom>
8.6686999999999994

> <minimizedAffinity>
-5.99188

> <CNNscore>
0.0793444067

> <CNNaffinity>
3.9725034237

> <CNN_VS>
0.3151959181

> <CNNaffinity_variance>
1.7532001734

$$$$
CHRNA7_encenicline__hybrid_A_face_seed4409_ex32__pose15


 22 25  0  0  0  0  0  0  0  0999 V2000
  145.4570  135.5780   91.9310 O   0  0  0  0  0  0  0  0  0  0  0  0
  145.1580  136.4770   91.2200 C   0  0  0  0  0  0  0  0  0  0  0  0
  146.1940  137.2720   90.5900 N   0  0  0  0  0  0  0  0  0  0  0  0
  145.9540  138.0190   89.9960 H   0  0  0  0  0  0  0  0  0  0  0  0
  143.6780  136.7870   90.9720 C   0  0  0  0  0  0  0  0  0  0  0  0
  142.6810  135.8750   90.8950 C   0  0  0  0  0  0  0  0  0  0  0  0
  141.3360  136.3180   90.6580 C   0  0  0  0  0  0  0  0  0  0  0  0
  140.2220  135.5280   90.5560 C   0  0  0  0  0  0  0  0  0  0  0  0
  138.9740  136.1070   90.3220 C   0  0  0  0  0  0  0  0  0  0  0  0
  138.8610  137.5020   90.1900 C   0  0  0  0  0  0  0  0  0  0  0  0
  139.9940  138.3140   90.2940 C   0  0  0  0  0  0  0  0  0  0  0  0
  139.8440  140.0820   90.1280 Cl  0  0  0  0  0  0  0  0  0  0  0  0
  141.2240  137.7460   90.5250 C   0  0  0  0  0  0  0  0  0  0  0  0
  142.9300  138.3400   90.7330 S   0  0  0  0  0  0  0  0  0  0  0  0
  147.6160  136.9510   90.8470 C   0  0  0  0  0  0  0  0  0  0  0  0
  148.2850  136.4510   89.5510 C   0  0  0  0  0  0  0  0  0  0  0  0
  149.3740  137.2530   89.2010 N   0  0  0  0  0  0  0  0  0  0  0  0
  150.3010  137.2730   90.2200 C   0  0  0  0  0  0  0  0  0  0  0  0
  149.7090  137.8120   91.4890 C   0  0  0  0  0  0  0  0  0  0  0  0
  148.3260  138.1470   91.2930 C   0  0  0  0  0  0  0  0  0  0  0  0
  148.2400  139.1530   90.2380 C   0  0  0  0  0  0  0  0  0  0  0  0
  148.9310  138.5740   88.9450 C   0  0  0  0  0  0  0  0  0  0  0  0
  1  2  2  0
  2  3  1  0
  3 15  1  0
 15 16  1  0
 16 17  1  0
 17 18  1  0
 18 19  1  0
 19 20  1  0
 20 21  1  0
 21 22  1  0
  2  5  1  0
  5  6  2  0
  6  7  1  0
  7  8  2  0
  8  9  1  0
  9 10  2  0
 10 11  1  0
 11 12  1  0
 11 13  2  0
 13 14  1  0
 20 15  1  0
 14  5  1  0
 22 17  1  0
 13  7  1  0
  3  4  1  0
M  END
> <meeko>
{"is_sidechain": false}

> <source_group>
CHRFAM7A at A face

> <source_system>
CHRNA7_encenicline

> <source_run>
hybrid_A_face_seed4409_ex32

> <source_seed>
4409

> <vina_pose_rank>
15

> <vina_affinity_kcal_mol>
-5.9900000000000002

> <vina_rmsd_to_crystal_angstrom>
7.6626000000000003

> <minimizedAffinity>
-6.00315

> <CNNscore>
0.3951837718

> <CNNaffinity>
5.0312333107

> <CNN_VS>
1.9882616997

> <CNNaffinity_variance>
0.4869011939

$$$$
CHRNA7_encenicline__hybrid_A_face_seed4409_ex32__pose16


 22 25  0  0  0  0  0  0  0  0999 V2000
  148.0580  140.3780   91.1800 O   0  0  0  0  0  0  0  0  0  0  0  0
  147.8900  139.5290   90.3730 C   0  0  0  0  0  0  0  0  0  0  0  0
  148.5800  139.5980   89.0990 N   0  0  0  0  0  0  0  0  0  0  0  0
  148.4480  138.8950   88.4240 H   0  0  0  0  0  0  0  0  0  0  0  0
  146.9470  138.3620   90.6850 C   0  0  0  0  0  0  0  0  0  0  0  0
  147.3170  137.1500   91.1600 C   0  0  0  0  0  0  0  0  0  0  0  0
  146.3150  136.1520   91.4070 C   0  0  0  0  0  0  0  0  0  0  0  0
  146.5240  134.8860   91.8860 C   0  0  0  0  0  0  0  0  0  0  0  0
  145.4430  134.0240   92.0740 C   0  0  0  0  0  0  0  0  0  0  0  0
  144.1400  134.4540   91.7730 C   0  0  0  0  0  0  0  0  0  0  0  0
  143.9200  135.7460   91.2850 C   0  0  0  0  0  0  0  0  0  0  0  0
  142.2640  136.2880   90.9070 Cl  0  0  0  0  0  0  0  0  0  0  0  0
  144.9830  136.5970   91.0980 C   0  0  0  0  0  0  0  0  0  0  0  0
  145.2160  138.3030   90.5130 S   0  0  0  0  0  0  0  0  0  0  0  0
  149.4860  140.7370   88.8240 C   0  0  0  0  0  0  0  0  0  0  0  0
  150.7060  140.2540   88.0140 C   0  0  0  0  0  0  0  0  0  0  0  0
  150.8080  140.9340   86.7980 N   0  0  0  0  0  0  0  0  0  0  0  0
  150.9060  142.2910   87.0150 C   0  0  0  0  0  0  0  0  0  0  0  0
  149.7080  142.8170   87.7490 C   0  0  0  0  0  0  0  0  0  0  0  0
  148.7900  141.7510   88.0370 C   0  0  0  0  0  0  0  0  0  0  0  0
  148.3730  141.1470   86.7740 C   0  0  0  0  0  0  0  0  0  0  0  0
  149.6640  140.6690   86.0060 C   0  0  0  0  0  0  0  0  0  0  0  0
  1  2  2  0
  2  3  1  0
  3 15  1  0
 15 16  1  0
 16 17  1  0
 17 18  1  0
 18 19  1  0
 19 20  1  0
 20 21  1  0
 21 22  1  0
  2  5  1  0
  5  6  2  0
  6  7  1  0
  7  8  2  0
  8  9  1  0
  9 10  2  0
 10 11  1  0
 11 12  1  0
 11 13  2  0
 13 14  1  0
 20 15  1  0
 14  5  1  0
 22 17  1  0
 13  7  1  0
  3  4  1  0
M  END
> <meeko>
{"is_sidechain": false}

> <source_group>
CHRFAM7A at A face

> <source_system>
CHRNA7_encenicline

> <source_run>
hybrid_A_face_seed4409_ex32

> <source_seed>
4409

> <vina_pose_rank>
16

> <vina_affinity_kcal_mol>
-5.9349999999999996

> <vina_rmsd_to_crystal_angstrom>
7.2214

> <minimizedAffinity>
-5.94092

> <CNNscore>
0.3389419615

> <CNNaffinity>
5.0345387459

> <CNN_VS>
1.7064164877

> <CNNaffinity_variance>
0.3024969399

$$$$
CHRNA7_encenicline__hybrid_A_face_seed4409_ex32__pose17


 22 25  0  0  0  0  0  0  0  0999 V2000
  141.4230  142.3220   93.2490 O   0  0  0  0  0  0  0  0  0  0  0  0
  140.3910  142.8940   93.3560 C   0  0  0  0  0  0  0  0  0  0  0  0
  139.9450  143.3360   94.6630 N   0  0  0  0  0  0  0  0  0  0  0  0
  139.0900  143.8140   94.7600 H   0  0  0  0  0  0  0  0  0  0  0  0
  139.5410  143.1640   92.1090 C   0  0  0  0  0  0  0  0  0  0  0  0
  138.7140  144.2190   91.9290 C   0  0  0  0  0  0  0  0  0  0  0  0
  137.9800  144.3390   90.7020 C   0  0  0  0  0  0  0  0  0  0  0  0
  137.1090  145.3420   90.3650 C   0  0  0  0  0  0  0  0  0  0  0  0
  136.4650  145.3210   89.1270 C   0  0  0  0  0  0  0  0  0  0  0  0
  136.7100  144.2720   88.2250 C   0  0  0  0  0  0  0  0  0  0  0  0
  137.5990  143.2460   88.5620 C   0  0  0  0  0  0  0  0  0  0  0  0
  137.9080  141.9190   87.4130 Cl  0  0  0  0  0  0  0  0  0  0  0  0
  138.2340  143.2640   89.7810 C   0  0  0  0  0  0  0  0  0  0  0  0
  139.4290  142.2110   90.6570 S   0  0  0  0  0  0  0  0  0  0  0  0
  140.7860  143.0620   95.8500 C   0  0  0  0  0  0  0  0  0  0  0  0
  140.6220  144.1950   96.8830 C   0  0  0  0  0  0  0  0  0  0  0  0
  140.1630  143.7020   98.1070 N   0  0  0  0  0  0  0  0  0  0  0  0
  141.0320  142.7530   98.5980 C   0  0  0  0  0  0  0  0  0  0  0  0
  141.1760  141.5990   97.6500 C   0  0  0  0  0  0  0  0  0  0  0  0
  140.3730  141.8100   96.4780 C   0  0  0  0  0  0  0  0  0  0  0  0
  138.9780  141.9420   96.8930 C   0  0  0  0  0  0  0  0  0  0  0  0
  138.8830  143.1200   97.9360 C   0  0  0  0  0  0  0  0  0  0  0  0
  1  2  2  0
  2  3  1  0
  3 15  1  0
 15 16  1  0
 16 17  1  0
 17 18  1  0
 18 19  1  0
 19 20  1  0
 20 21  1  0
 21 22  1  0
  2  5  1  0
  5  6  2  0
  6  7  1  0
  7  8  2  0
  8  9  1  0
  9 10  2  0
 10 11  1  0
 11 12  1  0
 11 13  2  0
 13 14  1  0
 20 15  1  0
 14  5  1  0
 22 17  1  0
 13  7  1  0
  3  4  1  0
M  END
> <meeko>
{"is_sidechain": false}

> <source_group>
CHRFAM7A at A face

> <source_system>
CHRNA7_encenicline

> <source_run>
hybrid_A_face_seed4409_ex32

> <source_seed>
4409

> <vina_pose_rank>
17

> <vina_affinity_kcal_mol>
-5.9089999999999998

> <vina_rmsd_to_crystal_angstrom>
9.7530000000000001

> <minimizedAffinity>
-5.92373

> <CNNscore>
0.0894067660

> <CNNaffinity>
3.6186821461

> <CNN_VS>
0.3235346675

> <CNNaffinity_variance>
2.1190688610

$$$$
CHRNA7_encenicline__hybrid_A_face_seed4409_ex32__pose18


 22 25  0  0  0  0  0  0  0  0999 V2000
  144.5340  142.2400   94.8370 O   0  0  0  0  0  0  0  0  0  0  0  0
  143.6690  141.6610   94.2730 C   0  0  0  0  0  0  0  0  0  0  0  0
  142.2830  141.9600   94.5790 N   0  0  0  0  0  0  0  0  0  0  0  0
  141.5580  141.4850   94.1130 H   0  0  0  0  0  0  0  0  0  0  0  0
  144.0240  140.6030   93.2220 C   0  0  0  0  0  0  0  0  0  0  0  0
  143.8800  139.2650   93.3660 C   0  0  0  0  0  0  0  0  0  0  0  0
  144.2560  138.3950   92.2880 C   0  0  0  0  0  0  0  0  0  0  0  0
  144.1720  137.0280   92.2740 C   0  0  0  0  0  0  0  0  0  0  0  0
  144.5800  136.3140   91.1470 C   0  0  0  0  0  0  0  0  0  0  0  0
  145.0780  136.9980   90.0250 C   0  0  0  0  0  0  0  0  0  0  0  0
  145.1670  138.3940   90.0320 C   0  0  0  0  0  0  0  0  0  0  0  0
  145.7980  139.2560   88.6050 Cl  0  0  0  0  0  0  0  0  0  0  0  0
  144.7650  139.0990   91.1420 C   0  0  0  0  0  0  0  0  0  0  0  0
  144.6830  140.8480   91.6300 S   0  0  0  0  0  0  0  0  0  0  0  0
  141.9680  142.9870   95.5980 C   0  0  0  0  0  0  0  0  0  0  0  0
  140.6670  143.7220   95.2180 C   0  0  0  0  0  0  0  0  0  0  0  0
  139.7040  143.6000   96.2230 N   0  0  0  0  0  0  0  0  0  0  0  0
  140.1870  144.1000   97.4120 C   0  0  0  0  0  0  0  0  0  0  0  0
  141.4220  143.3710   97.8530 C   0  0  0  0  0  0  0  0  0  0  0  0
  141.7710  142.3550   96.8990 C   0  0  0  0  0  0  0  0  0  0  0  0
  140.6530  141.4210   96.7920 C   0  0  0  0  0  0  0  0  0  0  0  0
  139.3640  142.2350   96.3930 C   0  0  0  0  0  0  0  0  0  0  0  0
  1  2  2  0
  2  3  1  0
  3 15  1  0
 15 16  1  0
 16 17  1  0
 17 18  1  0
 18 19  1  0
 19 20  1  0
 20 21  1  0
 21 22  1  0
  2  5  1  0
  5  6  2  0
  6  7  1  0
  7  8  2  0
  8  9  1  0
  9 10  2  0
 10 11  1  0
 11 12  1  0
 11 13  2  0
 13 14  1  0
 20 15  1  0
 14  5  1  0
 22 17  1  0
 13  7  1  0
  3  4  1  0
M  END
> <meeko>
{"is_sidechain": false}

> <source_group>
CHRFAM7A at A face

> <source_system>
CHRNA7_encenicline

> <source_run>
hybrid_A_face_seed4409_ex32

> <source_seed>
4409

> <vina_pose_rank>
18

> <vina_affinity_kcal_mol>
-5.8920000000000003

> <vina_rmsd_to_crystal_angstrom>
5.7888000000000002

> <minimizedAffinity>
-5.89527

> <CNNscore>
0.1095818505

> <CNNaffinity>
3.9521636963

> <CNN_VS>
0.4330854118

> <CNNaffinity_variance>
1.1696457863

$$$$
CHRNA7_encenicline__hybrid_A_face_seed4409_ex32__pose19


 22 25  0  0  0  0  0  0  0  0999 V2000
  143.7420  139.4010   95.6630 O   0  0  0  0  0  0  0  0  0  0  0  0
  143.6150  140.0890   94.7070 C   0  0  0  0  0  0  0  0  0  0  0  0
  142.9740  141.3840   94.8330 N   0  0  0  0  0  0  0  0  0  0  0  0
  142.8670  141.9630   94.0440 H   0  0  0  0  0  0  0  0  0  0  0  0
  144.1340  139.6040   93.3490 C   0  0  0  0  0  0  0  0  0  0  0  0
  143.8790  140.1820   92.1520 C   0  0  0  0  0  0  0  0  0  0  0  0
  144.4390  139.6130   90.9600 C   0  0  0  0  0  0  0  0  0  0  0  0
  144.2800  140.0760   89.6810 C   0  0  0  0  0  0  0  0  0  0  0  0
  144.8890  139.4100   88.6160 C   0  0  0  0  0  0  0  0  0  0  0  0
  145.6660  138.2640   88.8560 C   0  0  0  0  0  0  0  0  0  0  0  0
  145.8340  137.7870   90.1600 C   0  0  0  0  0  0  0  0  0  0  0  0
  146.8230  136.3350   90.4590 Cl  0  0  0  0  0  0  0  0  0  0  0  0
  145.2350  138.4410   91.2100 C   0  0  0  0  0  0  0  0  0  0  0  0
  145.1490  138.2310   93.0140 S   0  0  0  0  0  0  0  0  0  0  0  0
  142.4820  141.8280   96.1570 C   0  0  0  0  0  0  0  0  0  0  0  0
  142.7960  143.3240   96.3590 C   0  0  0  0  0  0  0  0  0  0  0  0
  141.6300  144.0590   96.5880 N   0  0  0  0  0  0  0  0  0  0  0  0
  140.9660  143.5730   97.6930 C   0  0  0  0  0  0  0  0  0  0  0  0
  140.5870  142.1330   97.5140 C   0  0  0  0  0  0  0  0  0  0  0  0
  141.0360  141.6510   96.2380 C   0  0  0  0  0  0  0  0  0  0  0  0
  140.4140  142.4620   95.1940 C   0  0  0  0  0  0  0  0  0  0  0  0
  140.7830  143.9720   95.4560 C   0  0  0  0  0  0  0  0  0  0  0  0
  1  2  2  0
  2  3  1  0
  3 15  1  0
 15 16  1  0
 16 17  1  0
 17 18  1  0
 18 19  1  0
 19 20  1  0
 20 21  1  0
 21 22  1  0
  2  5  1  0
  5  6  2  0
  6  7  1  0
  7  8  2  0
  8  9  1  0
  9 10  2  0
 10 11  1  0
 11 12  1  0
 11 13  2  0
 13 14  1  0
 20 15  1  0
 14  5  1  0
 22 17  1  0
 13  7  1  0
  3  4  1  0
M  END
> <meeko>
{"is_sidechain": false}

> <source_group>
CHRFAM7A at A face

> <source_system>
CHRNA7_encenicline

> <source_run>
hybrid_A_face_seed4409_ex32

> <source_seed>
4409

> <vina_pose_rank>
19

> <vina_affinity_kcal_mol>
-5.7869999999999999

> <vina_rmsd_to_crystal_angstrom>
6.0496999999999996

> <minimizedAffinity>
-5.76668

> <CNNscore>
0.0808802471

> <CNNaffinity>
4.1334452629

> <CNN_VS>
0.3343140781

> <CNNaffinity_variance>
0.4184146821

$$$$
CHRNA7_encenicline__hybrid_A_face_seed4409_ex32__pose20


 22 25  0  0  0  0  0  0  0  0999 V2000
  149.2000  135.4980   92.5840 O   0  0  0  0  0  0  0  0  0  0  0  0
  148.8200  136.3720   91.8810 C   0  0  0  0  0  0  0  0  0  0  0  0
  149.7800  137.2390   91.2250 N   0  0  0  0  0  0  0  0  0  0  0  0
  149.4720  137.9650   90.6370 H   0  0  0  0  0  0  0  0  0  0  0  0
  147.3150  136.5750   91.6700 C   0  0  0  0  0  0  0  0  0  0  0  0
  146.3980  135.5920   91.5210 C   0  0  0  0  0  0  0  0  0  0  0  0
  145.0180  135.9370   91.3320 C   0  0  0  0  0  0  0  0  0  0  0  0
  143.9720  135.0670   91.1690 C   0  0  0  0  0  0  0  0  0  0  0  0
  142.6770  135.5560   90.9940 C   0  0  0  0  0  0  0  0  0  0  0  0
  142.4450  136.9420   90.9840 C   0  0  0  0  0  0  0  0  0  0  0  0
  143.5070  137.8350   91.1510 C   0  0  0  0  0  0  0  0  0  0  0  0
  143.2060  139.5930   91.1390 Cl  0  0  0  0  0  0  0  0  0  0  0  0
  144.7840  137.3560   91.3230 C   0  0  0  0  0  0  0  0  0  0  0  0
  146.4360  138.0740   91.5710 S   0  0  0  0  0  0  0  0  0  0  0  0
  151.2280  137.0210   91.4460 C   0  0  0  0  0  0  0  0  0  0  0  0
  151.8990  136.5780   90.1310 C   0  0  0  0  0  0  0  0  0  0  0  0
  152.9190  137.4580   89.7620 N   0  0  0  0  0  0  0  0  0  0  0  0
  153.8660  137.5400   90.7590 C   0  0  0  0  0  0  0  0  0  0  0  0
  153.2670  138.0270   92.0450 C   0  0  0  0  0  0  0  0  0  0  0  0
  151.8590  138.2620   91.8850 C   0  0  0  0  0  0  0  0  0  0  0  0
  151.6750  139.2650   90.8390 C   0  0  0  0  0  0  0  0  0  0  0  0
  152.3750  138.7450   89.5270 C   0  0  0  0  0  0  0  0  0  0  0  0
  1  2  2  0
  2  3  1  0
  3 15  1  0
 15 16  1  0
 16 17  1  0
 17 18  1  0
 18 19  1  0
 19 20  1  0
 20 21  1  0
 21 22  1  0
  2  5  1  0
  5  6  2  0
  6  7  1  0
  7  8  2  0
  8  9  1  0
  9 10  2  0
 10 11  1  0
 11 12  1  0
 11 13  2  0
 13 14  1  0
 20 15  1  0
 14  5  1  0
 22 17  1  0
 13  7  1  0
  3  4  1  0
M  END
> <meeko>
{"is_sidechain": false}

> <source_group>
CHRFAM7A at A face

> <source_system>
CHRNA7_encenicline

> <source_run>
hybrid_A_face_seed4409_ex32

> <source_seed>
4409

> <vina_pose_rank>
20

> <vina_affinity_kcal_mol>
-5.6360000000000001

> <vina_rmsd_to_crystal_angstrom>
9.1721000000000004

> <minimizedAffinity>
-5.64852

> <CNNscore>
0.2789621055

> <CNNaffinity>
4.8695054054

> <CNN_VS>
1.3584074974

> <CNNaffinity_variance>
0.2220513374

$$$$
