BACE1_verubecestat__canonical_obabel_seed3301_ex32__pose01
     RDKit          3D

 45 47  0  0  0  0  0  0  0  0999 V2000
   23.0970   11.6750   25.1480 C   0  0  0  0  0  0  0  0  0  0  0  0
   22.4880   11.1260   23.9200 N   0  0  0  0  0  0  0  0  0  0  0  0
   22.4320    9.7430   23.6400 C   0  0  0  0  0  0  0  0  0  0  0  0
   22.8530    8.9500   24.6740 N   0  0  0  0  0  0  0  0  0  0  0  0
   22.0010    9.2500   22.5210 N   0  0  0  0  0  0  0  0  0  0  0  0
   21.6440   10.1070   21.3910 C   0  0  2  0  0  0  0  0  0  0  0  0
   20.7770    9.1890   20.5240 C   0  0  0  0  0  0  0  0  0  0  0  0
   22.8640   10.5320   20.5890 C   0  0  0  0  0  0  0  0  0  0  0  0
   24.1480   10.1480   20.9740 C   0  0  0  0  0  0  0  0  0  0  0  0
   25.2700   10.5200   20.2690 C   0  0  0  0  0  0  0  0  0  0  0  0
   26.5000   10.0660   20.7620 N   0  0  0  0  0  0  0  0  0  0  0  0
   27.6210   10.8100   21.0870 C   0  0  0  0  0  0  0  0  0  0  0  0
   27.7600   12.0060   20.8690 O   0  0  0  0  0  0  0  0  0  0  0  0
   28.6960   10.0630   21.7850 C   0  0  0  0  0  0  0  0  0  0  0  0
   28.6310    8.6840   21.8760 C   0  0  0  0  0  0  0  0  0  0  0  0
   29.6600    8.0380   22.5400 C   0  0  0  0  0  0  0  0  0  0  0  0
   30.7000    8.7730   23.0760 C   0  0  0  0  0  0  0  0  0  0  0  0
   31.7160    8.1910   23.7370 F   0  0  0  0  0  0  0  0  0  0  0  0
   30.6720   10.1420   22.9390 C   0  0  0  0  0  0  0  0  0  0  0  0
   29.6850   10.7970   22.3060 N   0  0  0  0  0  0  0  0  0  0  0  0
   25.1540   11.2860   19.1160 C   0  0  0  0  0  0  0  0  0  0  0  0
   23.8880   11.6790   18.7200 C   0  0  0  0  0  0  0  0  0  0  0  0
   22.7740   11.3250   19.4550 C   0  0  0  0  0  0  0  0  0  0  0  0
   21.5450   11.7480   19.0620 F   0  0  0  0  0  0  0  0  0  0  0  0
   20.7580   11.2410   21.8590 C   0  0  0  0  0  0  0  0  0  0  0  0
   21.6330   12.2940   22.9890 S   0  0  0  0  0  0  0  0  0  0  0  0
   20.6330   12.8890   23.8580 O   0  0  0  0  0  0  0  0  0  0  0  0
   22.6660   13.0310   22.3310 O   0  0  0  0  0  0  0  0  0  0  0  0
   22.6076   11.2338   26.0288 H   0  0  0  0  0  0  0  0  0  0  0  0
   24.1699   11.4330   25.1650 H   0  0  0  0  0  0  0  0  0  0  0  0
   22.9672   12.7672   25.1650 H   0  0  0  0  0  0  0  0  0  0  0  0
   22.8510    7.9700   24.5750 H   0  0  0  0  0  0  0  0  0  0  0  0
   23.1570    9.3580   25.5160 H   0  0  0  0  0  0  0  0  0  0  0  0
   20.1664    8.5425   21.1714 H   0  0  0  0  0  0  0  0  0  0  0  0
   20.1180    9.7993   19.8890 H   0  0  0  0  0  0  0  0  0  0  0  0
   21.4240    8.5659   19.8890 H   0  0  0  0  0  0  0  0  0  0  0  0
   24.2685    9.5257   21.8730 H   0  0  0  0  0  0  0  0  0  0  0  0
   26.5770    9.0930   20.8940 H   0  0  0  0  0  0  0  0  0  0  0  0
   27.7933    8.1220   21.4373 H   0  0  0  0  0  0  0  0  0  0  0  0
   29.6496    6.9427   22.6405 H   0  0  0  0  0  0  0  0  0  0  0  0
   31.4978   10.7281   23.3686 H   0  0  0  0  0  0  0  0  0  0  0  0
   26.0430   11.5718   18.5346 H   0  0  0  0  0  0  0  0  0  0  0  0
   23.7673   12.2814   17.8076 H   0  0  0  0  0  0  0  0  0  0  0  0
   20.4378   11.8322   20.9884 H   0  0  0  0  0  0  0  0  0  0  0  0
   19.8835   10.8175   22.3746 H   0  0  0  0  0  0  0  0  0  0  0  0
  1  2  1  0
  2  3  1  0
  3  4  1  0
  3  5  2  0
  5  6  1  0
  6  7  1  6
  6  8  1  0
  8  9  2  0
  9 10  1  0
 10 11  1  0
 11 12  1  0
 12 13  2  0
 12 14  1  0
 14 15  2  0
 15 16  1  0
 16 17  2  0
 17 18  1  0
 17 19  1  0
 19 20  2  0
 10 21  2  0
 21 22  1  0
 22 23  2  0
 23 24  1  0
  6 25  1  0
 25 26  1  0
 26 27  2  0
 26 28  2  0
 26  2  1  0
 23  8  1  0
 20 14  1  0
  1 29  1  0
  1 30  1  0
  1 31  1  0
  4 32  1  0
  4 33  1  0
  7 34  1  0
  7 35  1  0
  7 36  1  0
  9 37  1  0
 11 38  1  0
 15 39  1  0
 16 40  1  0
 19 41  1  0
 21 42  1  0
 22 43  1  0
 25 44  1  0
 25 45  1  0
M  END
>  <meeko>  (1)
{"is_sidechain": false}

>  <source_group>  (1)
BACE1 canonical

>  <source_system>  (1)
BACE1_verubecestat

>  <source_run>  (1)
canonical_obabel_seed3301_ex32

>  <source_seed>  (1)
3301

>  <vina_pose_rank>  (1)
1

>  <vina_affinity_kcal_mol>  (1)
-9.4939999999999998

>  <vina_rmsd_to_crystal_angstrom>  (1)
0.95279999999999998

$$$$
BACE1_verubecestat__canonical_obabel_seed3301_ex32__pose02
     RDKit          3D

 45 47  0  0  0  0  0  0  0  0999 V2000
   16.9250   14.8770   25.4280 C   0  0  0  0  0  0  0  0  0  0  0  0
   18.0200   14.4540   26.3230 N   0  0  0  0  0  0  0  0  0  0  0  0
   19.2250   15.1790   26.4620 C   0  0  0  0  0  0  0  0  0  0  0  0
   19.2250   16.3840   25.8120 N   0  0  0  0  0  0  0  0  0  0  0  0
   20.2390   14.7670   27.1580 N   0  0  0  0  0  0  0  0  0  0  0  0
   20.2630   13.4380   27.7680 C   0  0  2  0  0  0  0  0  0  0  0  0
   21.3580   13.5680   28.8300 C   0  0  0  0  0  0  0  0  0  0  0  0
   20.6680   12.3610   26.7740 C   0  0  0  0  0  0  0  0  0  0  0  0
   21.0520   12.6880   25.4750 C   0  0  0  0  0  0  0  0  0  0  0  0
   21.4210   11.7340   24.5530 C   0  0  0  0  0  0  0  0  0  0  0  0
   21.7880   12.1970   23.2830 N   0  0  0  0  0  0  0  0  0  0  0  0
   23.0560   12.4820   22.8080 C   0  0  0  0  0  0  0  0  0  0  0  0
   24.0750   12.4950   23.4850 O   0  0  0  0  0  0  0  0  0  0  0  0
   23.1410   12.7510   21.3520 C   0  0  0  0  0  0  0  0  0  0  0  0
   21.9840   12.8340   20.5960 C   0  0  0  0  0  0  0  0  0  0  0  0
   22.1220   13.0850   19.2420 C   0  0  0  0  0  0  0  0  0  0  0  0
   23.3810   13.2470   18.6970 C   0  0  0  0  0  0  0  0  0  0  0  0
   23.5640   13.4840   17.3870 F   0  0  0  0  0  0  0  0  0  0  0  0
   24.4720   13.1420   19.5300 C   0  0  0  0  0  0  0  0  0  0  0  0
   24.3700   12.8930   20.8460 N   0  0  0  0  0  0  0  0  0  0  0  0
   21.4430   10.3900   24.9040 C   0  0  0  0  0  0  0  0  0  0  0  0
   21.0610   10.0460   26.1880 C   0  0  0  0  0  0  0  0  0  0  0  0
   20.6630   11.0120   27.0920 C   0  0  0  0  0  0  0  0  0  0  0  0
   20.2650   10.6450   28.3370 F   0  0  0  0  0  0  0  0  0  0  0  0
   18.9650   13.1790   28.5000 C   0  0  0  0  0  0  0  0  0  0  0  0
   17.6000   13.1490   27.3650 S   0  0  0  0  0  0  0  0  0  0  0  0
   16.4270   13.5600   28.1160 O   0  0  0  0  0  0  0  0  0  0  0  0
   17.6480   12.0020   26.5130 O   0  0  0  0  0  0  0  0  0  0  0  0
   16.0665   15.2087   26.0304 H   0  0  0  0  0  0  0  0  0  0  0  0
   17.2699   15.7066   24.7933 H   0  0  0  0  0  0  0  0  0  0  0  0
   16.6226   14.0310   24.7933 H   0  0  0  0  0  0  0  0  0  0  0  0
   20.0210   16.9630   25.8500 H   0  0  0  0  0  0  0  0  0  0  0  0
   18.4300   16.6720   25.3070 H   0  0  0  0  0  0  0  0  0  0  0  0
   20.9058   13.5143   29.8313 H   0  0  0  0  0  0  0  0  0  0  0  0
   22.0833   12.7497   28.7109 H   0  0  0  0  0  0  0  0  0  0  0  0
   21.8716   14.5334   28.7109 H   0  0  0  0  0  0  0  0  0  0  0  0
   21.0607   13.7463   25.1753 H   0  0  0  0  0  0  0  0  0  0  0  0
   21.0490   12.3370   22.6470 H   0  0  0  0  0  0  0  0  0  0  0  0
   20.9924   12.7053   21.0544 H   0  0  0  0  0  0  0  0  0  0  0  0
   21.2308   13.1554   18.6010 H   0  0  0  0  0  0  0  0  0  0  0  0
   25.4754   13.2681   19.0971 H   0  0  0  0  0  0  0  0  0  0  0  0
   21.7552    9.6215   24.1815 H   0  0  0  0  0  0  0  0  0  0  0  0
   21.0742    8.9893   26.4935 H   0  0  0  0  0  0  0  0  0  0  0  0
   19.0280   12.2089   29.0148 H   0  0  0  0  0  0  0  0  0  0  0  0
   18.8020   13.9873   29.2280 H   0  0  0  0  0  0  0  0  0  0  0  0
  1  2  1  0
  2  3  1  0
  3  4  1  0
  3  5  2  0
  5  6  1  0
  6  7  1  1
  6  8  1  0
  8  9  2  0
  9 10  1  0
 10 11  1  0
 11 12  1  0
 12 13  2  0
 12 14  1  0
 14 15  2  0
 15 16  1  0
 16 17  2  0
 17 18  1  0
 17 19  1  0
 19 20  2  0
 10 21  2  0
 21 22  1  0
 22 23  2  0
 23 24  1  0
  6 25  1  0
 25 26  1  0
 26 27  2  0
 26 28  2  0
 26  2  1  0
 23  8  1  0
 20 14  1  0
  1 29  1  0
  1 30  1  0
  1 31  1  0
  4 32  1  0
  4 33  1  0
  7 34  1  0
  7 35  1  0
  7 36  1  0
  9 37  1  0
 11 38  1  0
 15 39  1  0
 16 40  1  0
 19 41  1  0
 21 42  1  0
 22 43  1  0
 25 44  1  0
 25 45  1  0
M  END
>  <meeko>  (2)
{"is_sidechain": false}

>  <source_group>  (2)
BACE1 canonical

>  <source_system>  (2)
BACE1_verubecestat

>  <source_run>  (2)
canonical_obabel_seed3301_ex32

>  <source_seed>  (2)
3301

>  <vina_pose_rank>  (2)
2

>  <vina_affinity_kcal_mol>  (2)
-8.5410000000000004

>  <vina_rmsd_to_crystal_angstrom>  (2)
7.3914

$$$$
BACE1_verubecestat__canonical_obabel_seed3301_ex32__pose03
     RDKit          3D

 45 47  0  0  0  0  0  0  0  0999 V2000
   27.8440   11.9420   22.7370 C   0  0  0  0  0  0  0  0  0  0  0  0
   27.0790   12.3620   21.5470 N   0  0  0  0  0  0  0  0  0  0  0  0
   26.5900   13.6760   21.3690 C   0  0  0  0  0  0  0  0  0  0  0  0
   27.0180   14.5610   22.3220 N   0  0  0  0  0  0  0  0  0  0  0  0
   25.8250   14.0340   20.3850 N   0  0  0  0  0  0  0  0  0  0  0  0
   25.2970   13.0620   19.4280 C   0  0  2  0  0  0  0  0  0  0  0  0
   24.8860   13.9370   18.2410 C   0  0  0  0  0  0  0  0  0  0  0  0
   24.0650   12.3470   19.9610 C   0  0  0  0  0  0  0  0  0  0  0  0
   23.5820   12.6040   21.2440 C   0  0  0  0  0  0  0  0  0  0  0  0
   22.4720   11.9710   21.7530 C   0  0  0  0  0  0  0  0  0  0  0  0
   22.0900   12.3220   23.0540 N   0  0  0  0  0  0  0  0  0  0  0  0
   22.3230   11.6330   24.2310 C   0  0  0  0  0  0  0  0  0  0  0  0
   22.8040   10.5100   24.3060 O   0  0  0  0  0  0  0  0  0  0  0  0
   21.9800   12.3660   25.4730 C   0  0  0  0  0  0  0  0  0  0  0  0
   20.6730   12.7600   25.7040 C   0  0  0  0  0  0  0  0  0  0  0  0
   20.4090   13.4440   26.8780 C   0  0  0  0  0  0  0  0  0  0  0  0
   21.4330   13.7040   27.7680 C   0  0  0  0  0  0  0  0  0  0  0  0
   21.2270   14.3720   28.9160 F   0  0  0  0  0  0  0  0  0  0  0  0
   22.7020   13.2770   27.4470 C   0  0  0  0  0  0  0  0  0  0  0  0
   22.9900   12.6170   26.3130 N   0  0  0  0  0  0  0  0  0  0  0  0
   21.7700   11.0530   20.9810 C   0  0  0  0  0  0  0  0  0  0  0  0
   22.2360   10.7830   19.7070 C   0  0  0  0  0  0  0  0  0  0  0  0
   23.3710   11.4030   19.2210 C   0  0  0  0  0  0  0  0  0  0  0  0
   23.8250   11.0980   17.9780 F   0  0  0  0  0  0  0  0  0  0  0  0
   26.4060   12.1530   18.9470 C   0  0  0  0  0  0  0  0  0  0  0  0
   27.0530   11.1880   20.2880 S   0  0  0  0  0  0  0  0  0  0  0  0
   28.4340   10.8870   19.9530 O   0  0  0  0  0  0  0  0  0  0  0  0
   26.1070   10.2180   20.7440 O   0  0  0  0  0  0  0  0  0  0  0  0
   27.3010   12.2401   23.6460 H   0  0  0  0  0  0  0  0  0  0  0  0
   27.9684   10.8491   22.7260 H   0  0  0  0  0  0  0  0  0  0  0  0
   28.8329   12.4237   22.7260 H   0  0  0  0  0  0  0  0  0  0  0  0
   26.7310   15.5020   22.2830 H   0  0  0  0  0  0  0  0  0  0  0  0
   27.6130   14.2570   23.0450 H   0  0  0  0  0  0  0  0  0  0  0  0
   24.4457   14.8744   18.6116 H   0  0  0  0  0  0  0  0  0  0  0  0
   25.7714   14.1645   17.6292 H   0  0  0  0  0  0  0  0  0  0  0  0
   24.1456   13.4008   17.6292 H   0  0  0  0  0  0  0  0  0  0  0  0
   24.1076   13.3392   21.8712 H   0  0  0  0  0  0  0  0  0  0  0  0
   21.5930   13.1670   23.1430 H   0  0  0  0  0  0  0  0  0  0  0  0
   19.8740   12.5377   24.9813 H   0  0  0  0  0  0  0  0  0  0  0  0
   19.3857   13.7799   27.1019 H   0  0  0  0  0  0  0  0  0  0  0  0
   23.5192   13.4863   28.1530 H   0  0  0  0  0  0  0  0  0  0  0  0
   20.8700   10.5556   21.3718 H   0  0  0  0  0  0  0  0  0  0  0  0
   21.6958   10.0651   19.0723 H   0  0  0  0  0  0  0  0  0  0  0  0
   26.0096   11.4775   18.1746 H   0  0  0  0  0  0  0  0  0  0  0  0
   27.2161   12.7720   18.5340 H   0  0  0  0  0  0  0  0  0  0  0  0
  1  2  1  0
  2  3  1  0
  3  4  1  0
  3  5  2  0
  5  6  1  0
  6  7  1  6
  6  8  1  0
  8  9  2  0
  9 10  1  0
 10 11  1  0
 11 12  1  0
 12 13  2  0
 12 14  1  0
 14 15  2  0
 15 16  1  0
 16 17  2  0
 17 18  1  0
 17 19  1  0
 19 20  2  0
 10 21  2  0
 21 22  1  0
 22 23  2  0
 23 24  1  0
  6 25  1  0
 25 26  1  0
 26 27  2  0
 26 28  2  0
 26  2  1  0
 23  8  1  0
 20 14  1  0
  1 29  1  0
  1 30  1  0
  1 31  1  0
  4 32  1  0
  4 33  1  0
  7 34  1  0
  7 35  1  0
  7 36  1  0
  9 37  1  0
 11 38  1  0
 15 39  1  0
 16 40  1  0
 19 41  1  0
 21 42  1  0
 22 43  1  0
 25 44  1  0
 25 45  1  0
M  END
>  <meeko>  (3)
{"is_sidechain": false}

>  <source_group>  (3)
BACE1 canonical

>  <source_system>  (3)
BACE1_verubecestat

>  <source_run>  (3)
canonical_obabel_seed3301_ex32

>  <source_seed>  (3)
3301

>  <vina_pose_rank>  (3)
3

>  <vina_affinity_kcal_mol>  (3)
-8.3640000000000008

>  <vina_rmsd_to_crystal_angstrom>  (3)
7.0960000000000001

$$$$
BACE1_verubecestat__canonical_obabel_seed3301_ex32__pose04
     RDKit          3D

 45 47  0  0  0  0  0  0  0  0999 V2000
   26.9620   11.4790   21.6240 C   0  0  0  0  0  0  0  0  0  0  0  0
   25.7380   11.8540   20.8880 N   0  0  0  0  0  0  0  0  0  0  0  0
   25.1830   13.1530   20.9280 C   0  0  0  0  0  0  0  0  0  0  0  0
   25.9620   14.0690   21.5820 N   0  0  0  0  0  0  0  0  0  0  0  0
   24.0520   13.4710   20.3770 N   0  0  0  0  0  0  0  0  0  0  0  0
   23.1860   12.4660   19.7650 C   0  0  2  0  0  0  0  0  0  0  0  0
   22.2690   13.3030   18.8690 C   0  0  0  0  0  0  0  0  0  0  0  0
   22.3360   11.7400   20.7960 C   0  0  0  0  0  0  0  0  0  0  0  0
   22.3220   12.1440   22.1300 C   0  0  0  0  0  0  0  0  0  0  0  0
   21.5650   11.5040   23.0850 C   0  0  0  0  0  0  0  0  0  0  0  0
   21.6390   12.0110   24.3890 N   0  0  0  0  0  0  0  0  0  0  0  0
   20.6820   12.7260   25.0860 C   0  0  0  0  0  0  0  0  0  0  0  0
   19.6350   13.1500   24.6120 O   0  0  0  0  0  0  0  0  0  0  0  0
   20.9740   12.9410   26.5240 C   0  0  0  0  0  0  0  0  0  0  0  0
   21.4960   11.9090   27.2850 C   0  0  0  0  0  0  0  0  0  0  0  0
   21.7480   12.1640   28.6210 C   0  0  0  0  0  0  0  0  0  0  0  0
   21.4810   13.4140   29.1450 C   0  0  0  0  0  0  0  0  0  0  0  0
   21.7010   13.7060   30.4390 F   0  0  0  0  0  0  0  0  0  0  0  0
   20.9580   14.3750   28.3100 C   0  0  0  0  0  0  0  0  0  0  0  0
   20.6970   14.1550   27.0110 N   0  0  0  0  0  0  0  0  0  0  0  0
   20.7570   10.4280   22.7380 C   0  0  0  0  0  0  0  0  0  0  0  0
   20.7610   10.0110   21.4180 C   0  0  0  0  0  0  0  0  0  0  0  0
   21.5510   10.6430   20.4770 C   0  0  0  0  0  0  0  0  0  0  0  0
   21.5580   10.1960   19.1950 F   0  0  0  0  0  0  0  0  0  0  0  0
   23.9950   11.5680   18.8550 C   0  0  0  0  0  0  0  0  0  0  0  0
   25.1940   10.6490   19.7850 S   0  0  0  0  0  0  0  0  0  0  0  0
   26.2940   10.3680   18.8800 O   0  0  0  0  0  0  0  0  0  0  0  0
   24.5740    9.6720   20.6250 O   0  0  0  0  0  0  0  0  0  0  0  0
   26.7717   11.5373   22.7058 H   0  0  0  0  0  0  0  0  0  0  0  0
   27.2500   10.4514   21.3572 H   0  0  0  0  0  0  0  0  0  0  0  0
   27.7761   12.1689   21.3572 H   0  0  0  0  0  0  0  0  0  0  0  0
   25.6600   15.0030   21.6620 H   0  0  0  0  0  0  0  0  0  0  0  0
   26.8230   13.7950   21.9720 H   0  0  0  0  0  0  0  0  0  0  0  0
   21.6011   13.9126   19.4954 H   0  0  0  0  0  0  0  0  0  0  0  0
   22.8790   13.9622   18.2339 H   0  0  0  0  0  0  0  0  0  0  0  0
   21.6680   12.6355   18.2339 H   0  0  0  0  0  0  0  0  0  0  0  0
   22.9377   13.0047   22.4302 H   0  0  0  0  0  0  0  0  0  0  0  0
   22.4800   11.8360   24.8700 H   0  0  0  0  0  0  0  0  0  0  0  0
   21.7027   10.9229   26.8436 H   0  0  0  0  0  0  0  0  0  0  0  0
   22.1602   11.3731   29.2648 H   0  0  0  0  0  0  0  0  0  0  0  0
   20.7436   15.3704   28.7262 H   0  0  0  0  0  0  0  0  0  0  0  0
   20.1329    9.9227   23.4898 H   0  0  0  0  0  0  0  0  0  0  0  0
   20.1267    9.1652   21.1142 H   0  0  0  0  0  0  0  0  0  0  0  0
   23.3182   10.8663   18.3454 H   0  0  0  0  0  0  0  0  0  0  0  0
   24.5218   12.1929   18.1188 H   0  0  0  0  0  0  0  0  0  0  0  0
  1  2  1  0
  2  3  1  0
  3  4  1  0
  3  5  2  0
  5  6  1  0
  6  7  1  6
  6  8  1  0
  8  9  2  0
  9 10  1  0
 10 11  1  0
 11 12  1  0
 12 13  2  0
 12 14  1  0
 14 15  2  0
 15 16  1  0
 16 17  2  0
 17 18  1  0
 17 19  1  0
 19 20  2  0
 10 21  2  0
 21 22  1  0
 22 23  2  0
 23 24  1  0
  6 25  1  0
 25 26  1  0
 26 27  2  0
 26 28  2  0
 26  2  1  0
 23  8  1  0
 20 14  1  0
  1 29  1  0
  1 30  1  0
  1 31  1  0
  4 32  1  0
  4 33  1  0
  7 34  1  0
  7 35  1  0
  7 36  1  0
  9 37  1  0
 11 38  1  0
 15 39  1  0
 16 40  1  0
 19 41  1  0
 21 42  1  0
 22 43  1  0
 25 44  1  0
 25 45  1  0
M  END
>  <meeko>  (4)
{"is_sidechain": false}

>  <source_group>  (4)
BACE1 canonical

>  <source_system>  (4)
BACE1_verubecestat

>  <source_run>  (4)
canonical_obabel_seed3301_ex32

>  <source_seed>  (4)
3301

>  <vina_pose_rank>  (4)
4

>  <vina_affinity_kcal_mol>  (4)
-8.3079999999999998

>  <vina_rmsd_to_crystal_angstrom>  (4)
7.3544

$$$$
BACE1_verubecestat__canonical_obabel_seed3301_ex32__pose05
     RDKit          3D

 45 47  0  0  0  0  0  0  0  0999 V2000
   27.1180   15.5950   19.6170 C   0  0  0  0  0  0  0  0  0  0  0  0
   26.7290   14.1740   19.7000 N   0  0  0  0  0  0  0  0  0  0  0  0
   26.4090   13.3950   18.5650 C   0  0  0  0  0  0  0  0  0  0  0  0
   26.6390   14.0290   17.3740 N   0  0  0  0  0  0  0  0  0  0  0  0
   25.9620   12.1790   18.6270 N   0  0  0  0  0  0  0  0  0  0  0  0
   25.6310   11.5470   19.9030 C   0  0  2  0  0  0  0  0  0  0  0  0
   25.6180   10.0560   19.5540 C   0  0  0  0  0  0  0  0  0  0  0  0
   24.2500   11.9470   20.3980 C   0  0  0  0  0  0  0  0  0  0  0  0
   23.9010   11.8200   21.7420 C   0  0  0  0  0  0  0  0  0  0  0  0
   22.6580   12.1720   22.2160 C   0  0  0  0  0  0  0  0  0  0  0  0
   22.4380   11.9980   23.5890 N   0  0  0  0  0  0  0  0  0  0  0  0
   23.1840   12.4880   24.6460 C   0  0  0  0  0  0  0  0  0  0  0  0
   24.2590   13.0630   24.5410 O   0  0  0  0  0  0  0  0  0  0  0  0
   22.5760   12.3100   25.9870 C   0  0  0  0  0  0  0  0  0  0  0  0
   21.4780   11.4810   26.1430 C   0  0  0  0  0  0  0  0  0  0  0  0
   20.9500   11.3530   27.4160 C   0  0  0  0  0  0  0  0  0  0  0  0
   21.5230   12.0370   28.4700 C   0  0  0  0  0  0  0  0  0  0  0  0
   21.0390   11.9510   29.7210 F   0  0  0  0  0  0  0  0  0  0  0  0
   22.6100   12.8420   28.2140 C   0  0  0  0  0  0  0  0  0  0  0  0
   23.1410   12.9910   26.9890 N   0  0  0  0  0  0  0  0  0  0  0  0
   21.7000   12.6950   21.3580 C   0  0  0  0  0  0  0  0  0  0  0  0
   22.0270   12.8250   20.0190 C   0  0  0  0  0  0  0  0  0  0  0  0
   23.2670   12.4380   19.5520 C   0  0  0  0  0  0  0  0  0  0  0  0
   23.5530   12.5480   18.2290 F   0  0  0  0  0  0  0  0  0  0  0  0
   26.7530   11.7600   20.8950 C   0  0  0  0  0  0  0  0  0  0  0  0
   26.9450   13.4860   21.2630 S   0  0  0  0  0  0  0  0  0  0  0  0
   28.3370   13.6790   21.6290 O   0  0  0  0  0  0  0  0  0  0  0  0
   25.8390   13.9910   22.0150 O   0  0  0  0  0  0  0  0  0  0  0  0
   27.2301   16.0044   20.6318 H   0  0  0  0  0  0  0  0  0  0  0  0
   28.0732   15.6828   19.0787 H   0  0  0  0  0  0  0  0  0  0  0  0
   26.3407   16.1571   19.0787 H   0  0  0  0  0  0  0  0  0  0  0  0
   26.4470   13.5680   16.5260 H   0  0  0  0  0  0  0  0  0  0  0  0
   26.9970   14.9470   17.3650 H   0  0  0  0  0  0  0  0  0  0  0  0
   25.6128    9.4627   20.4802 H   0  0  0  0  0  0  0  0  0  0  0  0
   24.7178    9.8250   18.9655 H   0  0  0  0  0  0  0  0  0  0  0  0
   26.5140    9.8093   18.9655 H   0  0  0  0  0  0  0  0  0  0  0  0
   24.6457   11.4244   22.4484 H   0  0  0  0  0  0  0  0  0  0  0  0
   21.6510   11.4580   23.8320 H   0  0  0  0  0  0  0  0  0  0  0  0
   21.0418   10.9444   25.2875 H   0  0  0  0  0  0  0  0  0  0  0  0
   20.0758   10.7078   27.5878 H   0  0  0  0  0  0  0  0  0  0  0  0
   23.0655   13.3893   29.0524 H   0  0  0  0  0  0  0  0  0  0  0  0
   20.7103   12.9972   21.7311 H   0  0  0  0  0  0  0  0  0  0  0  0
   21.2890   13.2422   19.3181 H   0  0  0  0  0  0  0  0  0  0  0  0
   26.5227   11.2163   21.8231 H   0  0  0  0  0  0  0  0  0  0  0  0
   27.6894   11.3854   20.4559 H   0  0  0  0  0  0  0  0  0  0  0  0
  1  2  1  0
  2  3  1  0
  3  4  1  0
  3  5  2  0
  5  6  1  0
  6  7  1  6
  6  8  1  0
  8  9  2  0
  9 10  1  0
 10 11  1  0
 11 12  1  0
 12 13  2  0
 12 14  1  0
 14 15  2  0
 15 16  1  0
 16 17  2  0
 17 18  1  0
 17 19  1  0
 19 20  2  0
 10 21  2  0
 21 22  1  0
 22 23  2  0
 23 24  1  0
  6 25  1  0
 25 26  1  0
 26 27  2  0
 26 28  2  0
 26  2  1  0
 23  8  1  0
 20 14  1  0
  1 29  1  0
  1 30  1  0
  1 31  1  0
  4 32  1  0
  4 33  1  0
  7 34  1  0
  7 35  1  0
  7 36  1  0
  9 37  1  0
 11 38  1  0
 15 39  1  0
 16 40  1  0
 19 41  1  0
 21 42  1  0
 22 43  1  0
 25 44  1  0
 25 45  1  0
M  END
>  <meeko>  (5)
{"is_sidechain": false}

>  <source_group>  (5)
BACE1 canonical

>  <source_system>  (5)
BACE1_verubecestat

>  <source_run>  (5)
canonical_obabel_seed3301_ex32

>  <source_seed>  (5)
3301

>  <vina_pose_rank>  (5)
5

>  <vina_affinity_kcal_mol>  (5)
-8.2059999999999995

>  <vina_rmsd_to_crystal_angstrom>  (5)
7.0997000000000003

$$$$
BACE1_verubecestat__canonical_obabel_seed3301_ex32__pose06
     RDKit          3D

 45 47  0  0  0  0  0  0  0  0999 V2000
   28.4830   13.7040   24.2310 C   0  0  0  0  0  0  0  0  0  0  0  0
   28.0460   13.8110   22.8250 N   0  0  0  0  0  0  0  0  0  0  0  0
   27.1780   14.8260   22.3640 C   0  0  0  0  0  0  0  0  0  0  0  0
   26.9000   15.7860   23.2990 N   0  0  0  0  0  0  0  0  0  0  0  0
   26.6980   14.8720   21.1590 N   0  0  0  0  0  0  0  0  0  0  0  0
   26.9250   13.7930   20.2000 C   0  0  2  0  0  0  0  0  0  0  0  0
   26.6200   14.4590   18.8550 C   0  0  0  0  0  0  0  0  0  0  0  0
   25.9600   12.6350   20.4050 C   0  0  0  0  0  0  0  0  0  0  0  0
   25.0440   12.6390   21.4550 C   0  0  0  0  0  0  0  0  0  0  0  0
   24.1610   11.6050   21.6660 C   0  0  0  0  0  0  0  0  0  0  0  0
   23.2900   11.7340   22.7560 N   0  0  0  0  0  0  0  0  0  0  0  0
   22.0340   12.3130   22.7860 C   0  0  0  0  0  0  0  0  0  0  0  0
   21.5220   12.9340   21.8640 O   0  0  0  0  0  0  0  0  0  0  0  0
   21.2720   12.1070   24.0420 C   0  0  0  0  0  0  0  0  0  0  0  0
   20.0970   11.3760   24.0250 C   0  0  0  0  0  0  0  0  0  0  0  0
   19.4250   11.2170   25.2250 C   0  0  0  0  0  0  0  0  0  0  0  0
   19.9370   11.7780   26.3790 C   0  0  0  0  0  0  0  0  0  0  0  0
   19.3160   11.6580   27.5650 F   0  0  0  0  0  0  0  0  0  0  0  0
   21.1100   12.4930   26.2930 C   0  0  0  0  0  0  0  0  0  0  0  0
   21.7810   12.6690   25.1430 N   0  0  0  0  0  0  0  0  0  0  0  0
   24.1390   10.5120   20.8080 C   0  0  0  0  0  0  0  0  0  0  0  0
   25.0440   10.4900   19.7620 C   0  0  0  0  0  0  0  0  0  0  0  0
   25.9460   11.5200   19.5820 C   0  0  0  0  0  0  0  0  0  0  0  0
   26.8440   11.4590   18.5640 F   0  0  0  0  0  0  0  0  0  0  0  0
   28.3890   13.4110   20.1840 C   0  0  0  0  0  0  0  0  0  0  0  0
   28.8830   12.7520   21.7560 S   0  0  0  0  0  0  0  0  0  0  0  0
   30.3000   13.0320   21.8960 O   0  0  0  0  0  0  0  0  0  0  0  0
   28.2880   11.4760   22.0040 O   0  0  0  0  0  0  0  0  0  0  0  0
   27.6321   13.9123   24.8963 H   0  0  0  0  0  0  0  0  0  0  0  0
   28.8576   12.6876   24.4222 H   0  0  0  0  0  0  0  0  0  0  0  0
   29.2848   14.4323   24.4222 H   0  0  0  0  0  0  0  0  0  0  0  0
   26.3040   16.5360   23.0710 H   0  0  0  0  0  0  0  0  0  0  0  0
   27.2970   15.7280   24.1980 H   0  0  0  0  0  0  0  0  0  0  0  0
   26.1678   15.4465   19.0290 H   0  0  0  0  0  0  0  0  0  0  0  0
   27.5532   14.5784   18.2850 H   0  0  0  0  0  0  0  0  0  0  0  0
   25.9200   13.8304   18.2850 H   0  0  0  0  0  0  0  0  0  0  0  0
   25.0261   13.4996   22.1398 H   0  0  0  0  0  0  0  0  0  0  0  0
   23.6140   11.3670   23.6100 H   0  0  0  0  0  0  0  0  0  0  0  0
   19.7113   10.9376   23.0928 H   0  0  0  0  0  0  0  0  0  0  0  0
   18.4858   10.6454   25.2595 H   0  0  0  0  0  0  0  0  0  0  0  0
   21.5176   12.9420   27.2107 H   0  0  0  0  0  0  0  0  0  0  0  0
   23.4238    9.6895   20.9561 H   0  0  0  0  0  0  0  0  0  0  0  0
   25.0451    9.6400   19.0638 H   0  0  0  0  0  0  0  0  0  0  0  0
   28.5555   12.6516   19.4058 H   0  0  0  0  0  0  0  0  0  0  0  0
   28.9867   14.3103   19.9741 H   0  0  0  0  0  0  0  0  0  0  0  0
  1  2  1  0
  2  3  1  0
  3  4  1  0
  3  5  2  0
  5  6  1  0
  6  7  1  6
  6  8  1  0
  8  9  2  0
  9 10  1  0
 10 11  1  0
 11 12  1  0
 12 13  2  0
 12 14  1  0
 14 15  2  0
 15 16  1  0
 16 17  2  0
 17 18  1  0
 17 19  1  0
 19 20  2  0
 10 21  2  0
 21 22  1  0
 22 23  2  0
 23 24  1  0
  6 25  1  0
 25 26  1  0
 26 27  2  0
 26 28  2  0
 26  2  1  0
 23  8  1  0
 20 14  1  0
  1 29  1  0
  1 30  1  0
  1 31  1  0
  4 32  1  0
  4 33  1  0
  7 34  1  0
  7 35  1  0
  7 36  1  0
  9 37  1  0
 11 38  1  0
 15 39  1  0
 16 40  1  0
 19 41  1  0
 21 42  1  0
 22 43  1  0
 25 44  1  0
 25 45  1  0
M  END
>  <meeko>  (6)
{"is_sidechain": false}

>  <source_group>  (6)
BACE1 canonical

>  <source_system>  (6)
BACE1_verubecestat

>  <source_run>  (6)
canonical_obabel_seed3301_ex32

>  <source_seed>  (6)
3301

>  <vina_pose_rank>  (6)
6

>  <vina_affinity_kcal_mol>  (6)
-8.0429999999999993

>  <vina_rmsd_to_crystal_angstrom>  (6)
7.5622999999999996

$$$$
BACE1_verubecestat__canonical_obabel_seed3301_ex32__pose07
     RDKit          3D

 45 47  0  0  0  0  0  0  0  0999 V2000
   21.8740   11.9740   29.0210 C   0  0  0  0  0  0  0  0  0  0  0  0
   20.8270   12.4590   28.1010 N   0  0  0  0  0  0  0  0  0  0  0  0
   19.4720   12.0730   28.2040 C   0  0  0  0  0  0  0  0  0  0  0  0
   19.1880   11.3330   29.3210 N   0  0  0  0  0  0  0  0  0  0  0  0
   18.5600   12.4030   27.3420 N   0  0  0  0  0  0  0  0  0  0  0  0
   18.8910   13.1110   26.1070 C   0  0  2  0  0  0  0  0  0  0  0  0
   17.5410   13.6880   25.6700 C   0  0  0  0  0  0  0  0  0  0  0  0
   19.3950   12.1690   25.0250 C   0  0  0  0  0  0  0  0  0  0  0  0
   20.2770   12.6100   24.0390 C   0  0  0  0  0  0  0  0  0  0  0  0
   20.7470   11.7790   23.0470 C   0  0  0  0  0  0  0  0  0  0  0  0
   21.6300   12.3470   22.1200 N   0  0  0  0  0  0  0  0  0  0  0  0
   23.0010   12.1860   22.0320 C   0  0  0  0  0  0  0  0  0  0  0  0
   23.6960   11.6040   22.8550 O   0  0  0  0  0  0  0  0  0  0  0  0
   23.6280   12.7490   20.8110 C   0  0  0  0  0  0  0  0  0  0  0  0
   22.8680   12.9410   19.6700 C   0  0  0  0  0  0  0  0  0  0  0  0
   23.5050   13.4670   18.5600 C   0  0  0  0  0  0  0  0  0  0  0  0
   24.8480   13.7820   18.6220 C   0  0  0  0  0  0  0  0  0  0  0  0
   25.5110   14.2870   17.5670 F   0  0  0  0  0  0  0  0  0  0  0  0
   25.5200   13.5500   19.8000 C   0  0  0  0  0  0  0  0  0  0  0  0
   24.9310   13.0350   20.8920 N   0  0  0  0  0  0  0  0  0  0  0  0
   20.3670   10.4430   23.0090 C   0  0  0  0  0  0  0  0  0  0  0  0
   19.4900    9.9890   23.9780 C   0  0  0  0  0  0  0  0  0  0  0  0
   19.0010   10.8420   24.9490 C   0  0  0  0  0  0  0  0  0  0  0  0
   18.1180   10.3780   25.8700 F   0  0  0  0  0  0  0  0  0  0  0  0
   19.7980   14.2840   26.4080 C   0  0  0  0  0  0  0  0  0  0  0  0
   21.3510   13.7250   27.0580 S   0  0  0  0  0  0  0  0  0  0  0  0
   21.8570   14.7940   27.9010 O   0  0  0  0  0  0  0  0  0  0  0  0
   22.1270   13.0500   26.0650 O   0  0  0  0  0  0  0  0  0  0  0  0
   21.5475   12.1253   30.0605 H   0  0  0  0  0  0  0  0  0  0  0  0
   22.0500   10.9027   28.8441 H   0  0  0  0  0  0  0  0  0  0  0  0
   22.8050   12.5326   28.8441 H   0  0  0  0  0  0  0  0  0  0  0  0
   18.2700   11.0170   29.4810 H   0  0  0  0  0  0  0  0  0  0  0  0
   19.9030   11.1170   29.9630 H   0  0  0  0  0  0  0  0  0  0  0  0
   16.9458   13.9424   26.5594 H   0  0  0  0  0  0  0  0  0  0  0  0
   17.7069   14.5939   25.0684 H   0  0  0  0  0  0  0  0  0  0  0  0
   17.0009   12.9421   25.0684 H   0  0  0  0  0  0  0  0  0  0  0  0
   20.6089   13.6586   24.0543 H   0  0  0  0  0  0  0  0  0  0  0  0
   21.2220   12.9360   21.4440 H   0  0  0  0  0  0  0  0  0  0  0  0
   21.7984   12.6851   19.6467 H   0  0  0  0  0  0  0  0  0  0  0  0
   22.9424   13.6340   17.6296 H   0  0  0  0  0  0  0  0  0  0  0  0
   26.5905   13.7980   19.8500 H   0  0  0  0  0  0  0  0  0  0  0  0
   20.7519    9.7665   22.2317 H   0  0  0  0  0  0  0  0  0  0  0  0
   19.1776    8.9343   23.9754 H   0  0  0  0  0  0  0  0  0  0  0  0
   19.9768   14.8493   25.4815 H   0  0  0  0  0  0  0  0  0  0  0  0
   19.3107   14.9246   27.1578 H   0  0  0  0  0  0  0  0  0  0  0  0
  1  2  1  0
  2  3  1  0
  3  4  1  0
  3  5  2  0
  5  6  1  0
  6  7  1  6
  6  8  1  0
  8  9  2  0
  9 10  1  0
 10 11  1  0
 11 12  1  0
 12 13  2  0
 12 14  1  0
 14 15  2  0
 15 16  1  0
 16 17  2  0
 17 18  1  0
 17 19  1  0
 19 20  2  0
 10 21  2  0
 21 22  1  0
 22 23  2  0
 23 24  1  0
  6 25  1  0
 25 26  1  0
 26 27  2  0
 26 28  2  0
 26  2  1  0
 23  8  1  0
 20 14  1  0
  1 29  1  0
  1 30  1  0
  1 31  1  0
  4 32  1  0
  4 33  1  0
  7 34  1  0
  7 35  1  0
  7 36  1  0
  9 37  1  0
 11 38  1  0
 15 39  1  0
 16 40  1  0
 19 41  1  0
 21 42  1  0
 22 43  1  0
 25 44  1  0
 25 45  1  0
M  END
>  <meeko>  (7)
{"is_sidechain": false}

>  <source_group>  (7)
BACE1 canonical

>  <source_system>  (7)
BACE1_verubecestat

>  <source_run>  (7)
canonical_obabel_seed3301_ex32

>  <source_seed>  (7)
3301

>  <vina_pose_rank>  (7)
7

>  <vina_affinity_kcal_mol>  (7)
-8.0120000000000005

>  <vina_rmsd_to_crystal_angstrom>  (7)
6.3285999999999998

$$$$
BACE1_verubecestat__canonical_obabel_seed3301_ex32__pose08
     RDKit          3D

 45 47  0  0  0  0  0  0  0  0999 V2000
   16.5990   14.6800   25.0760 C   0  0  0  0  0  0  0  0  0  0  0  0
   17.7170   14.5150   26.0260 N   0  0  0  0  0  0  0  0  0  0  0  0
   18.9070   15.2730   25.9540 C   0  0  0  0  0  0  0  0  0  0  0  0
   18.8710   16.2760   25.0230 N   0  0  0  0  0  0  0  0  0  0  0  0
   19.9410   15.0670   26.7110 N   0  0  0  0  0  0  0  0  0  0  0  0
   20.0040   13.9350   27.6340 C   0  0  2  0  0  0  0  0  0  0  0  0
   21.1130   14.3480   28.6070 C   0  0  0  0  0  0  0  0  0  0  0  0
   20.4180   12.6500   26.9340 C   0  0  0  0  0  0  0  0  0  0  0  0
   20.9010   12.6660   25.6270 C   0  0  0  0  0  0  0  0  0  0  0  0
   21.2800   11.5180   24.9680 C   0  0  0  0  0  0  0  0  0  0  0  0
   21.7500   11.6730   23.6570 N   0  0  0  0  0  0  0  0  0  0  0  0
   21.2400   11.1250   22.4940 C   0  0  0  0  0  0  0  0  0  0  0  0
   20.3460   10.2900   22.4410 O   0  0  0  0  0  0  0  0  0  0  0  0
   21.8310   11.6450   21.2370 C   0  0  0  0  0  0  0  0  0  0  0  0
   21.8070   13.0040   20.9730 C   0  0  0  0  0  0  0  0  0  0  0  0
   22.3710   13.4340   19.7850 C   0  0  0  0  0  0  0  0  0  0  0  0
   22.9320   12.5170   18.9170 C   0  0  0  0  0  0  0  0  0  0  0  0
   23.4820   12.8870   17.7480 F   0  0  0  0  0  0  0  0  0  0  0  0
   22.9020   11.1850   19.2660 C   0  0  0  0  0  0  0  0  0  0  0  0
   22.3570   10.7370   20.4080 N   0  0  0  0  0  0  0  0  0  0  0  0
   21.2120   10.2860   25.6060 C   0  0  0  0  0  0  0  0  0  0  0  0
   20.7320   10.2510   26.9030 C   0  0  0  0  0  0  0  0  0  0  0  0
   20.3250   11.4070   27.5410 C   0  0  0  0  0  0  0  0  0  0  0  0
   19.8300   11.3420   28.8030 F   0  0  0  0  0  0  0  0  0  0  0  0
   18.7230   13.8460   28.4340 C   0  0  0  0  0  0  0  0  0  0  0  0
   17.3430   13.5070   27.3710 S   0  0  0  0  0  0  0  0  0  0  0  0
   16.1730   14.0730   28.0190 O   0  0  0  0  0  0  0  0  0  0  0  0
   17.4030   12.1840   26.8340 O   0  0  0  0  0  0  0  0  0  0  0  0
   15.6612   14.8184   25.6339 H   0  0  0  0  0  0  0  0  0  0  0  0
   16.7826   15.5608   24.4431 H   0  0  0  0  0  0  0  0  0  0  0  0
   16.5203   13.7837   24.4431 H   0  0  0  0  0  0  0  0  0  0  0  0
   19.6540   16.8590   24.8980 H   0  0  0  0  0  0  0  0  0  0  0  0
   18.0630   16.4140   24.4780 H   0  0  0  0  0  0  0  0  0  0  0  0
   20.7612   14.2170   29.6410 H   0  0  0  0  0  0  0  0  0  0  0  0
   22.0005   13.7201   28.4393 H   0  0  0  0  0  0  0  0  0  0  0  0
   21.3736   15.4035   28.4393 H   0  0  0  0  0  0  0  0  0  0  0  0
   20.9824   13.6299   25.1032 H   0  0  0  0  0  0  0  0  0  0  0  0
   22.5440   12.2450   23.5510 H   0  0  0  0  0  0  0  0  0  0  0  0
   21.3565   13.7150   21.6811 H   0  0  0  0  0  0  0  0  0  0  0  0
   22.3728   14.5045   19.5319 H   0  0  0  0  0  0  0  0  0  0  0  0
   23.3461   10.4529   18.5755 H   0  0  0  0  0  0  0  0  0  0  0  0
   21.5304    9.3654   25.0950 H   0  0  0  0  0  0  0  0  0  0  0  0
   20.6735    9.2893   27.4338 H   0  0  0  0  0  0  0  0  0  0  0  0
   18.8152   13.0382   29.1750 H   0  0  0  0  0  0  0  0  0  0  0  0
   18.5531   14.8086   28.9385 H   0  0  0  0  0  0  0  0  0  0  0  0
  1  2  1  0
  2  3  1  0
  3  4  1  0
  3  5  2  0
  5  6  1  0
  6  7  1  1
  6  8  1  0
  8  9  2  0
  9 10  1  0
 10 11  1  0
 11 12  1  0
 12 13  2  0
 12 14  1  0
 14 15  2  0
 15 16  1  0
 16 17  2  0
 17 18  1  0
 17 19  1  0
 19 20  2  0
 10 21  2  0
 21 22  1  0
 22 23  2  0
 23 24  1  0
  6 25  1  0
 25 26  1  0
 26 27  2  0
 26 28  2  0
 26  2  1  0
 23  8  1  0
 20 14  1  0
  1 29  1  0
  1 30  1  0
  1 31  1  0
  4 32  1  0
  4 33  1  0
  7 34  1  0
  7 35  1  0
  7 36  1  0
  9 37  1  0
 11 38  1  0
 15 39  1  0
 16 40  1  0
 19 41  1  0
 21 42  1  0
 22 43  1  0
 25 44  1  0
 25 45  1  0
M  END
>  <meeko>  (8)
{"is_sidechain": false}

>  <source_group>  (8)
BACE1 canonical

>  <source_system>  (8)
BACE1_verubecestat

>  <source_run>  (8)
canonical_obabel_seed3301_ex32

>  <source_seed>  (8)
3301

>  <vina_pose_rank>  (8)
8

>  <vina_affinity_kcal_mol>  (8)
-7.9649999999999999

>  <vina_rmsd_to_crystal_angstrom>  (8)
7.7286000000000001

$$$$
BACE1_verubecestat__canonical_obabel_seed3301_ex32__pose09
     RDKit          3D

 45 47  0  0  0  0  0  0  0  0999 V2000
   21.7830   12.7780   21.9190 C   0  0  0  0  0  0  0  0  0  0  0  0
   22.8620   12.0930   21.1810 N   0  0  0  0  0  0  0  0  0  0  0  0
   23.6650   11.0810   21.7530 C   0  0  0  0  0  0  0  0  0  0  0  0
   23.2560   10.6860   22.9990 N   0  0  0  0  0  0  0  0  0  0  0  0
   24.6850   10.5460   21.1570 N   0  0  0  0  0  0  0  0  0  0  0  0
   25.1690   11.0400   19.8690 C   0  0  2  0  0  0  0  0  0  0  0  0
   26.0150    9.8740   19.3500 C   0  0  0  0  0  0  0  0  0  0  0  0
   26.0610   12.2620   20.0260 C   0  0  0  0  0  0  0  0  0  0  0  0
   26.3520   12.7840   21.2850 C   0  0  0  0  0  0  0  0  0  0  0  0
   27.1540   13.8900   21.4560 C   0  0  0  0  0  0  0  0  0  0  0  0
   27.3700   14.3110   22.7750 N   0  0  0  0  0  0  0  0  0  0  0  0
   28.2650   13.8050   23.7000 C   0  0  0  0  0  0  0  0  0  0  0  0
   28.9410   12.7950   23.5470 O   0  0  0  0  0  0  0  0  0  0  0  0
   28.4080   14.6000   24.9430 C   0  0  0  0  0  0  0  0  0  0  0  0
   27.3280   15.3130   25.4360 C   0  0  0  0  0  0  0  0  0  0  0  0
   27.5190   16.0390   26.5980 C   0  0  0  0  0  0  0  0  0  0  0  0
   28.7510   16.0290   27.2220 C   0  0  0  0  0  0  0  0  0  0  0  0
   28.9860   16.7260   28.3470 F   0  0  0  0  0  0  0  0  0  0  0  0
   29.7660   15.2950   26.6520 C   0  0  0  0  0  0  0  0  0  0  0  0
   29.6140   14.5850   25.5220 N   0  0  0  0  0  0  0  0  0  0  0  0
   27.7260   14.5200   20.3580 C   0  0  0  0  0  0  0  0  0  0  0  0
   27.4450   14.0180   19.1000 C   0  0  0  0  0  0  0  0  0  0  0  0
   26.6130   12.9270   18.9420 C   0  0  0  0  0  0  0  0  0  0  0  0
   26.3290   12.4720   17.6940 F   0  0  0  0  0  0  0  0  0  0  0  0
   24.0120   11.2100   18.9100 C   0  0  0  0  0  0  0  0  0  0  0  0
   22.8880   12.4520   19.4970 S   0  0  0  0  0  0  0  0  0  0  0  0
   21.5800   12.1120   18.9650 O   0  0  0  0  0  0  0  0  0  0  0  0
   23.4660   13.7580   19.4350 O   0  0  0  0  0  0  0  0  0  0  0  0
   21.9528   12.6702   23.0005 H   0  0  0  0  0  0  0  0  0  0  0  0
   21.7774   13.8454   21.6533 H   0  0  0  0  0  0  0  0  0  0  0  0
   20.8146   12.3289   21.6533 H   0  0  0  0  0  0  0  0  0  0  0  0
   23.7520    9.9860   23.4810 H   0  0  0  0  0  0  0  0  0  0  0  0
   22.4660   11.1030   23.4130 H   0  0  0  0  0  0  0  0  0  0  0  0
   26.4240    9.3103   20.2014 H   0  0  0  0  0  0  0  0  0  0  0  0
   25.3874    9.2096   18.7379 H   0  0  0  0  0  0  0  0  0  0  0  0
   26.8413   10.2645   18.7379 H   0  0  0  0  0  0  0  0  0  0  0  0
   25.9259   12.2951   22.1735 H   0  0  0  0  0  0  0  0  0  0  0  0
   26.8140   15.0630   23.0820 H   0  0  0  0  0  0  0  0  0  0  0  0
   26.3550   15.3025   24.9230 H   0  0  0  0  0  0  0  0  0  0  0  0
   26.6905   16.6236   27.0245 H   0  0  0  0  0  0  0  0  0  0  0  0
   30.7490   15.2895   27.1455 H   0  0  0  0  0  0  0  0  0  0  0  0
   28.3833   15.3928   20.4852 H   0  0  0  0  0  0  0  0  0  0  0  0
   27.8901   14.4940   18.2138 H   0  0  0  0  0  0  0  0  0  0  0  0
   24.4001   11.5104   17.9256 H   0  0  0  0  0  0  0  0  0  0  0  0
   23.4736   10.2539   18.8324 H   0  0  0  0  0  0  0  0  0  0  0  0
  1  2  1  0
  2  3  1  0
  3  4  1  0
  3  5  2  0
  5  6  1  0
  6  7  1  6
  6  8  1  0
  8  9  2  0
  9 10  1  0
 10 11  1  0
 11 12  1  0
 12 13  2  0
 12 14  1  0
 14 15  2  0
 15 16  1  0
 16 17  2  0
 17 18  1  0
 17 19  1  0
 19 20  2  0
 10 21  2  0
 21 22  1  0
 22 23  2  0
 23 24  1  0
  6 25  1  0
 25 26  1  0
 26 27  2  0
 26 28  2  0
 26  2  1  0
 23  8  1  0
 20 14  1  0
  1 29  1  0
  1 30  1  0
  1 31  1  0
  4 32  1  0
  4 33  1  0
  7 34  1  0
  7 35  1  0
  7 36  1  0
  9 37  1  0
 11 38  1  0
 15 39  1  0
 16 40  1  0
 19 41  1  0
 21 42  1  0
 22 43  1  0
 25 44  1  0
 25 45  1  0
M  END
>  <meeko>  (9)
{"is_sidechain": false}

>  <source_group>  (9)
BACE1 canonical

>  <source_system>  (9)
BACE1_verubecestat

>  <source_run>  (9)
canonical_obabel_seed3301_ex32

>  <source_seed>  (9)
3301

>  <vina_pose_rank>  (9)
9

>  <vina_affinity_kcal_mol>  (9)
-7.8600000000000003

>  <vina_rmsd_to_crystal_angstrom>  (9)
5.3079999999999998

$$$$
BACE1_verubecestat__canonical_obabel_seed3301_ex32__pose10
     RDKit          3D

 45 47  0  0  0  0  0  0  0  0999 V2000
   21.2300    9.5740   23.4790 C   0  0  0  0  0  0  0  0  0  0  0  0
   21.5900   10.5370   22.4200 N   0  0  0  0  0  0  0  0  0  0  0  0
   21.5400   10.2230   21.0440 C   0  0  0  0  0  0  0  0  0  0  0  0
   20.9860    9.0010   20.7730 N   0  0  0  0  0  0  0  0  0  0  0  0
   21.9550   11.0180   20.1070 N   0  0  0  0  0  0  0  0  0  0  0  0
   22.6300   12.2780   20.4120 C   0  0  2  0  0  0  0  0  0  0  0  0
   22.5010   13.0630   19.1030 C   0  0  0  0  0  0  0  0  0  0  0  0
   24.1060   12.0750   20.7180 C   0  0  0  0  0  0  0  0  0  0  0  0
   24.7850   12.9280   21.5870 C   0  0  0  0  0  0  0  0  0  0  0  0
   26.1200   12.7690   21.8810 C   0  0  0  0  0  0  0  0  0  0  0  0
   26.6820   13.6930   22.7720 N   0  0  0  0  0  0  0  0  0  0  0  0
   26.6080   13.7050   24.1530 C   0  0  0  0  0  0  0  0  0  0  0  0
   25.9130   12.9570   24.8280 O   0  0  0  0  0  0  0  0  0  0  0  0
   27.4840   14.6950   24.8250 C   0  0  0  0  0  0  0  0  0  0  0  0
   27.1940   16.0460   24.7380 C   0  0  0  0  0  0  0  0  0  0  0  0
   28.0450   16.9260   25.3830 C   0  0  0  0  0  0  0  0  0  0  0  0
   29.1340   16.4410   26.0820 C   0  0  0  0  0  0  0  0  0  0  0  0
   29.9940   17.2580   26.7150 F   0  0  0  0  0  0  0  0  0  0  0  0
   29.3430   15.0810   26.1060 C   0  0  0  0  0  0  0  0  0  0  0  0
   28.5380   14.2030   25.4850 N   0  0  0  0  0  0  0  0  0  0  0  0
   26.8430   11.7200   21.3260 C   0  0  0  0  0  0  0  0  0  0  0  0
   26.1860   10.8660   20.4580 C   0  0  0  0  0  0  0  0  0  0  0  0
   24.8540   11.0560   20.1480 C   0  0  0  0  0  0  0  0  0  0  0  0
   24.2400   10.2210   19.2710 F   0  0  0  0  0  0  0  0  0  0  0  0
   21.8570   13.0410   21.4640 C   0  0  0  0  0  0  0  0  0  0  0  0
   21.8270   12.1430   22.9940 S   0  0  0  0  0  0  0  0  0  0  0  0
   20.6100   12.5370   23.6820 O   0  0  0  0  0  0  0  0  0  0  0  0
   23.1180   12.1000   23.6060 O   0  0  0  0  0  0  0  0  0  0  0  0
   21.4011   10.0318   24.4645 H   0  0  0  0  0  0  0  0  0  0  0  0
   20.1690    9.3008   23.3809 H   0  0  0  0  0  0  0  0  0  0  0  0
   21.8516    8.6718   23.3809 H   0  0  0  0  0  0  0  0  0  0  0  0
   20.9070    8.6920   19.8410 H   0  0  0  0  0  0  0  0  0  0  0  0
   20.6660    8.4310   21.5090 H   0  0  0  0  0  0  0  0  0  0  0  0
   22.3264   14.1254   19.3283 H   0  0  0  0  0  0  0  0  0  0  0  0
   23.4282   12.9593   18.5204 H   0  0  0  0  0  0  0  0  0  0  0  0
   21.6557   12.6680   18.5204 H   0  0  0  0  0  0  0  0  0  0  0  0
   24.2341   13.7576   22.0542 H   0  0  0  0  0  0  0  0  0  0  0  0
   27.1940   14.4280   22.3620 H   0  0  0  0  0  0  0  0  0  0  0  0
   26.3193   16.4065   24.1768 H   0  0  0  0  0  0  0  0  0  0  0  0
   27.8552   18.0086   25.3395 H   0  0  0  0  0  0  0  0  0  0  0  0
   30.2109   14.6943   26.6603 H   0  0  0  0  0  0  0  0  0  0  0  0
   27.9056   11.5730   21.5694 H   0  0  0  0  0  0  0  0  0  0  0  0
   26.7326   10.0238   20.0086 H   0  0  0  0  0  0  0  0  0  0  0  0
   22.3367   14.0173   21.6276 H   0  0  0  0  0  0  0  0  0  0  0  0
   20.8233   13.1779   21.1137 H   0  0  0  0  0  0  0  0  0  0  0  0
  1  2  1  0
  2  3  1  0
  3  4  1  0
  3  5  2  0
  5  6  1  0
  6  7  1  6
  6  8  1  0
  8  9  2  0
  9 10  1  0
 10 11  1  0
 11 12  1  0
 12 13  2  0
 12 14  1  0
 14 15  2  0
 15 16  1  0
 16 17  2  0
 17 18  1  0
 17 19  1  0
 19 20  2  0
 10 21  2  0
 21 22  1  0
 22 23  2  0
 23 24  1  0
  6 25  1  0
 25 26  1  0
 26 27  2  0
 26 28  2  0
 26  2  1  0
 23  8  1  0
 20 14  1  0
  1 29  1  0
  1 30  1  0
  1 31  1  0
  4 32  1  0
  4 33  1  0
  7 34  1  0
  7 35  1  0
  7 36  1  0
  9 37  1  0
 11 38  1  0
 15 39  1  0
 16 40  1  0
 19 41  1  0
 21 42  1  0
 22 43  1  0
 25 44  1  0
 25 45  1  0
M  END
>  <meeko>  (10)
{"is_sidechain": false}

>  <source_group>  (10)
BACE1 canonical

>  <source_system>  (10)
BACE1_verubecestat

>  <source_run>  (10)
canonical_obabel_seed3301_ex32

>  <source_seed>  (10)
3301

>  <vina_pose_rank>  (10)
10

>  <vina_affinity_kcal_mol>  (10)
-7.7400000000000002

>  <vina_rmsd_to_crystal_angstrom>  (10)
4.7084999999999999

$$$$
BACE1_verubecestat__canonical_obabel_seed3301_ex32__pose11
     RDKit          3D

 45 47  0  0  0  0  0  0  0  0999 V2000
   15.5760   13.5550   25.5640 C   0  0  0  0  0  0  0  0  0  0  0  0
   16.7280   14.2690   26.1480 N   0  0  0  0  0  0  0  0  0  0  0  0
   17.4260   15.2920   25.4680 C   0  0  0  0  0  0  0  0  0  0  0  0
   16.8470   15.6680   24.2860 N   0  0  0  0  0  0  0  0  0  0  0  0
   18.5040   15.8540   25.9200 N   0  0  0  0  0  0  0  0  0  0  0  0
   19.1660   15.3800   27.1350 C   0  0  2  0  0  0  0  0  0  0  0  0
   20.0480   16.5670   27.5310 C   0  0  0  0  0  0  0  0  0  0  0  0
   20.0550   14.1750   26.8680 C   0  0  0  0  0  0  0  0  0  0  0  0
   20.0460   13.5340   25.6300 C   0  0  0  0  0  0  0  0  0  0  0  0
   20.8380   12.4410   25.3620 C   0  0  0  0  0  0  0  0  0  0  0  0
   20.7350   11.8910   24.0770 N   0  0  0  0  0  0  0  0  0  0  0  0
   21.6330   11.9880   23.0290 C   0  0  0  0  0  0  0  0  0  0  0  0
   22.6300   12.6970   23.0190 O   0  0  0  0  0  0  0  0  0  0  0  0
   21.3400   11.1200   21.8620 C   0  0  0  0  0  0  0  0  0  0  0  0
   21.7720   11.4900   20.6000 C   0  0  0  0  0  0  0  0  0  0  0  0
   21.4700   10.6440   19.5480 C   0  0  0  0  0  0  0  0  0  0  0  0
   20.7650    9.4790   19.7820 C   0  0  0  0  0  0  0  0  0  0  0  0
   20.4410    8.6320   18.7900 F   0  0  0  0  0  0  0  0  0  0  0  0
   20.3730    9.2010   21.0720 C   0  0  0  0  0  0  0  0  0  0  0  0
   20.6470   10.0050   22.1120 N   0  0  0  0  0  0  0  0  0  0  0  0
   21.7050   11.9460   26.3280 C   0  0  0  0  0  0  0  0  0  0  0  0
   21.7250   12.5680   27.5630 C   0  0  0  0  0  0  0  0  0  0  0  0
   20.9010   13.6440   27.8290 C   0  0  0  0  0  0  0  0  0  0  0  0
   20.9190   14.2180   29.0590 F   0  0  0  0  0  0  0  0  0  0  0  0
   18.1500   15.1940   28.2410 C   0  0  0  0  0  0  0  0  0  0  0  0
   16.9860   13.9240   27.8150 S   0  0  0  0  0  0  0  0  0  0  0  0
   15.7540   14.2400   28.5150 O   0  0  0  0  0  0  0  0  0  0  0  0
   17.5950   12.6300   27.8060 O   0  0  0  0  0  0  0  0  0  0  0  0
   14.9410   13.1614   26.3713 H   0  0  0  0  0  0  0  0  0  0  0  0
   14.9910   14.2491   24.9427 H   0  0  0  0  0  0  0  0  0  0  0  0
   15.9373   12.7223   24.9427 H   0  0  0  0  0  0  0  0  0  0  0  0
   17.2590   16.3750   23.7390 H   0  0  0  0  0  0  0  0  0  0  0  0
   16.0170   15.2320   23.9830 H   0  0  0  0  0  0  0  0  0  0  0  0
   20.0992   16.6360   28.6276 H   0  0  0  0  0  0  0  0  0  0  0  0
   21.0602   16.4233   27.1249 H   0  0  0  0  0  0  0  0  0  0  0  0
   19.6183   17.4946   27.1249 H   0  0  0  0  0  0  0  0  0  0  0  0
   19.3826   13.9153   24.8397 H   0  0  0  0  0  0  0  0  0  0  0  0
   19.9190   11.3700   23.8970 H   0  0  0  0  0  0  0  0  0  0  0  0
   22.3343   12.4217   20.4397 H   0  0  0  0  0  0  0  0  0  0  0  0
   21.7906   10.8983   18.5270 H   0  0  0  0  0  0  0  0  0  0  0  0
   19.8083    8.2759   21.2598 H   0  0  0  0  0  0  0  0  0  0  0  0
   22.3562   11.0850   26.1169 H   0  0  0  0  0  0  0  0  0  0  0  0
   22.4066   12.2007   28.3443 H   0  0  0  0  0  0  0  0  0  0  0  0
   18.6717   14.9100   29.1668 H   0  0  0  0  0  0  0  0  0  0  0  0
   17.6059   16.1392   28.3846 H   0  0  0  0  0  0  0  0  0  0  0  0
  1  2  1  0
  2  3  1  0
  3  4  1  0
  3  5  2  0
  5  6  1  0
  6  7  1  1
  6  8  1  0
  8  9  2  0
  9 10  1  0
 10 11  1  0
 11 12  1  0
 12 13  2  0
 12 14  1  0
 14 15  2  0
 15 16  1  0
 16 17  2  0
 17 18  1  0
 17 19  1  0
 19 20  2  0
 10 21  2  0
 21 22  1  0
 22 23  2  0
 23 24  1  0
  6 25  1  0
 25 26  1  0
 26 27  2  0
 26 28  2  0
 26  2  1  0
 23  8  1  0
 20 14  1  0
  1 29  1  0
  1 30  1  0
  1 31  1  0
  4 32  1  0
  4 33  1  0
  7 34  1  0
  7 35  1  0
  7 36  1  0
  9 37  1  0
 11 38  1  0
 15 39  1  0
 16 40  1  0
 19 41  1  0
 21 42  1  0
 22 43  1  0
 25 44  1  0
 25 45  1  0
M  END
>  <meeko>  (11)
{"is_sidechain": false}

>  <source_group>  (11)
BACE1 canonical

>  <source_system>  (11)
BACE1_verubecestat

>  <source_run>  (11)
canonical_obabel_seed3301_ex32

>  <source_seed>  (11)
3301

>  <vina_pose_rank>  (11)
11

>  <vina_affinity_kcal_mol>  (11)
-7.7110000000000003

>  <vina_rmsd_to_crystal_angstrom>  (11)
8.3114000000000008

$$$$
BACE1_verubecestat__canonical_obabel_seed3301_ex32__pose12
     RDKit          3D

 45 47  0  0  0  0  0  0  0  0999 V2000
   26.8740   15.5830   19.8860 C   0  0  0  0  0  0  0  0  0  0  0  0
   26.6270   14.1270   19.9080 N   0  0  0  0  0  0  0  0  0  0  0  0
   26.4870   13.3520   18.7350 C   0  0  0  0  0  0  0  0  0  0  0  0
   26.7510   14.0400   17.5810 N   0  0  0  0  0  0  0  0  0  0  0  0
   26.1620   12.0960   18.7340 N   0  0  0  0  0  0  0  0  0  0  0  0
   25.7900   11.3990   19.9640 C   0  0  2  0  0  0  0  0  0  0  0  0
   25.9600    9.9240   19.5870 C   0  0  0  0  0  0  0  0  0  0  0  0
   24.3370   11.6440   20.3420 C   0  0  0  0  0  0  0  0  0  0  0  0
   23.9010   11.4970   21.6580 C   0  0  0  0  0  0  0  0  0  0  0  0
   22.5930   11.7100   22.0280 C   0  0  0  0  0  0  0  0  0  0  0  0
   22.2870   11.5300   23.3830 N   0  0  0  0  0  0  0  0  0  0  0  0
   22.8140   12.1930   24.4770 C   0  0  0  0  0  0  0  0  0  0  0  0
   23.7530   12.9780   24.4390 O   0  0  0  0  0  0  0  0  0  0  0  0
   22.1340   11.9270   25.7680 C   0  0  0  0  0  0  0  0  0  0  0  0
   22.5360   12.5960   26.9110 C   0  0  0  0  0  0  0  0  0  0  0  0
   21.8680   12.3080   28.0880 C   0  0  0  0  0  0  0  0  0  0  0  0
   20.8400   11.3840   28.0880 C   0  0  0  0  0  0  0  0  0  0  0  0
   20.1700   11.0650   29.2080 F   0  0  0  0  0  0  0  0  0  0  0  0
   20.5180   10.7660   26.9010 C   0  0  0  0  0  0  0  0  0  0  0  0
   21.1510   11.0210   25.7440 N   0  0  0  0  0  0  0  0  0  0  0  0
   21.6520   12.1080   21.0870 C   0  0  0  0  0  0  0  0  0  0  0  0
   22.0660   12.2560   19.7760 C   0  0  0  0  0  0  0  0  0  0  0  0
   23.3750   12.0080   19.4130 C   0  0  0  0  0  0  0  0  0  0  0  0
   23.7490   12.1320   18.1140 F   0  0  0  0  0  0  0  0  0  0  0  0
   26.7950   11.6960   21.0540 C   0  0  0  0  0  0  0  0  0  0  0  0
   26.7770   13.4210   21.4710 S   0  0  0  0  0  0  0  0  0  0  0  0
   28.1050   13.7420   21.9620 O   0  0  0  0  0  0  0  0  0  0  0  0
   25.5650   13.7920   22.1320 O   0  0  0  0  0  0  0  0  0  0  0  0
   26.9379   15.9597   20.9175 H   0  0  0  0  0  0  0  0  0  0  0  0
   27.8195   15.7866   19.3620 H   0  0  0  0  0  0  0  0  0  0  0  0
   26.0485   16.0871   19.3620 H   0  0  0  0  0  0  0  0  0  0  0  0
   26.6810   13.5850   16.7100 H   0  0  0  0  0  0  0  0  0  0  0  0
   27.0130   14.9880   17.6210 H   0  0  0  0  0  0  0  0  0  0  0  0
   26.0299    9.3174   20.5020 H   0  0  0  0  0  0  0  0  0  0  0  0
   25.0938    9.5949   18.9942 H   0  0  0  0  0  0  0  0  0  0  0  0
   26.8783    9.8006   18.9942 H   0  0  0  0  0  0  0  0  0  0  0  0
   24.6285   11.2002   22.4279 H   0  0  0  0  0  0  0  0  0  0  0  0
   21.6090   10.8430   23.5830 H   0  0  0  0  0  0  0  0  0  0  0  0
   23.3557   13.3291   26.8847 H   0  0  0  0  0  0  0  0  0  0  0  0
   22.1545   12.8135   29.0220 H   0  0  0  0  0  0  0  0  0  0  0  0
   19.7028   10.0275   26.8998 H   0  0  0  0  0  0  0  0  0  0  0  0
   20.6082   12.2998   21.3762 H   0  0  0  0  0  0  0  0  0  0  0  0
   21.3425   12.5757   19.0116 H   0  0  0  0  0  0  0  0  0  0  0  0
   26.5435   11.1059   21.9476 H   0  0  0  0  0  0  0  0  0  0  0  0
   27.7989   11.4304   20.6913 H   0  0  0  0  0  0  0  0  0  0  0  0
  1  2  1  0
  2  3  1  0
  3  4  1  0
  3  5  2  0
  5  6  1  0
  6  7  1  6
  6  8  1  0
  8  9  2  0
  9 10  1  0
 10 11  1  0
 11 12  1  0
 12 13  2  0
 12 14  1  0
 14 15  2  0
 15 16  1  0
 16 17  2  0
 17 18  1  0
 17 19  1  0
 19 20  2  0
 10 21  2  0
 21 22  1  0
 22 23  2  0
 23 24  1  0
  6 25  1  0
 25 26  1  0
 26 27  2  0
 26 28  2  0
 26  2  1  0
 23  8  1  0
 20 14  1  0
  1 29  1  0
  1 30  1  0
  1 31  1  0
  4 32  1  0
  4 33  1  0
  7 34  1  0
  7 35  1  0
  7 36  1  0
  9 37  1  0
 11 38  1  0
 15 39  1  0
 16 40  1  0
 19 41  1  0
 21 42  1  0
 22 43  1  0
 25 44  1  0
 25 45  1  0
M  END
>  <meeko>  (12)
{"is_sidechain": false}

>  <source_group>  (12)
BACE1 canonical

>  <source_system>  (12)
BACE1_verubecestat

>  <source_run>  (12)
canonical_obabel_seed3301_ex32

>  <source_seed>  (12)
3301

>  <vina_pose_rank>  (12)
12

>  <vina_affinity_kcal_mol>  (12)
-7.6630000000000003

>  <vina_rmsd_to_crystal_angstrom>  (12)
7.0789999999999997

$$$$
BACE1_verubecestat__canonical_obabel_seed3301_ex32__pose13
     RDKit          3D

 45 47  0  0  0  0  0  0  0  0999 V2000
   27.4150   11.4420   19.8880 C   0  0  0  0  0  0  0  0  0  0  0  0
   25.9830   11.8010   19.9090 N   0  0  0  0  0  0  0  0  0  0  0  0
   25.5210   13.1330   19.8140 C   0  0  0  0  0  0  0  0  0  0  0  0
   26.5070   14.0450   19.5470 N   0  0  0  0  0  0  0  0  0  0  0  0
   24.2760   13.4750   19.9400 N   0  0  0  0  0  0  0  0  0  0  0  0
   23.2480   12.5080   20.3180 C   0  0  2  0  0  0  0  0  0  0  0  0
   21.9510   13.2000   19.8880 C   0  0  0  0  0  0  0  0  0  0  0  0
   23.2060   12.2780   21.8210 C   0  0  0  0  0  0  0  0  0  0  0  0
   24.1460   12.8660   22.6660 C   0  0  0  0  0  0  0  0  0  0  0  0
   24.1330   12.6730   24.0280 C   0  0  0  0  0  0  0  0  0  0  0  0
   25.1330   13.3240   24.7630 N   0  0  0  0  0  0  0  0  0  0  0  0
   26.4710   13.4710   24.4460 C   0  0  0  0  0  0  0  0  0  0  0  0
   27.0360   12.9290   23.5050 O   0  0  0  0  0  0  0  0  0  0  0  0
   27.2320   14.3950   25.3230 C   0  0  0  0  0  0  0  0  0  0  0  0
   26.6060   15.5020   25.8690 C   0  0  0  0  0  0  0  0  0  0  0  0
   27.3640   16.3310   26.6780 C   0  0  0  0  0  0  0  0  0  0  0  0
   28.6910   16.0330   26.9160 C   0  0  0  0  0  0  0  0  0  0  0  0
   29.4680   16.8130   27.6870 F   0  0  0  0  0  0  0  0  0  0  0  0
   29.2260   14.9120   26.3240 C   0  0  0  0  0  0  0  0  0  0  0  0
   28.5180   14.0920   25.5290 N   0  0  0  0  0  0  0  0  0  0  0  0
   23.1510   11.8880   24.6190 C   0  0  0  0  0  0  0  0  0  0  0  0
   22.2120   11.2930   23.7950 C   0  0  0  0  0  0  0  0  0  0  0  0
   22.2560   11.4700   22.4260 C   0  0  0  0  0  0  0  0  0  0  0  0
   21.3400   10.8510   21.6370 F   0  0  0  0  0  0  0  0  0  0  0  0
   23.3800   11.2550   19.4810 C   0  0  0  0  0  0  0  0  0  0  0  0
   24.9270   10.4460   19.8050 S   0  0  0  0  0  0  0  0  0  0  0  0
   25.2760    9.7210   18.5960 O   0  0  0  0  0  0  0  0  0  0  0  0
   24.9620    9.8820   21.1180 O   0  0  0  0  0  0  0  0  0  0  0  0
   27.7849   11.3493   20.9198 H   0  0  0  0  0  0  0  0  0  0  0  0
   27.5451   10.4835   19.3643 H   0  0  0  0  0  0  0  0  0  0  0  0
   27.9819   12.2258   19.3643 H   0  0  0  0  0  0  0  0  0  0  0  0
   26.2830   15.0000   19.4610 H   0  0  0  0  0  0  0  0  0  0  0  0
   27.4390   13.7460   19.4400 H   0  0  0  0  0  0  0  0  0  0  0  0
   21.3836   13.5027   20.7804 H   0  0  0  0  0  0  0  0  0  0  0  0
   22.1917   14.0895   19.2874 H   0  0  0  0  0  0  0  0  0  0  0  0
   21.3462   12.5047   19.2874 H   0  0  0  0  0  0  0  0  0  0  0  0
   24.9256   13.5069   22.2283 H   0  0  0  0  0  0  0  0  0  0  0  0
   24.8460   13.7280   25.6140 H   0  0  0  0  0  0  0  0  0  0  0  0
   25.5458   15.7151   25.6676 H   0  0  0  0  0  0  0  0  0  0  0  0
   26.9101   17.2251   27.1302 H   0  0  0  0  0  0  0  0  0  0  0  0
   30.2840   14.6758   26.5105 H   0  0  0  0  0  0  0  0  0  0  0  0
   23.1208   11.7438   25.7091 H   0  0  0  0  0  0  0  0  0  0  0  0
   21.4197   10.6705   24.2363 H   0  0  0  0  0  0  0  0  0  0  0  0
   22.5554   10.5690   19.7249 H   0  0  0  0  0  0  0  0  0  0  0  0
   23.3418   11.5337   18.4176 H   0  0  0  0  0  0  0  0  0  0  0  0
  1  2  1  0
  2  3  1  0
  3  4  1  0
  3  5  2  0
  5  6  1  0
  6  7  1  6
  6  8  1  0
  8  9  2  0
  9 10  1  0
 10 11  1  0
 11 12  1  0
 12 13  2  0
 12 14  1  0
 14 15  2  0
 15 16  1  0
 16 17  2  0
 17 18  1  0
 17 19  1  0
 19 20  2  0
 10 21  2  0
 21 22  1  0
 22 23  2  0
 23 24  1  0
  6 25  1  0
 25 26  1  0
 26 27  2  0
 26 28  2  0
 26  2  1  0
 23  8  1  0
 20 14  1  0
  1 29  1  0
  1 30  1  0
  1 31  1  0
  4 32  1  0
  4 33  1  0
  7 34  1  0
  7 35  1  0
  7 36  1  0
  9 37  1  0
 11 38  1  0
 15 39  1  0
 16 40  1  0
 19 41  1  0
 21 42  1  0
 22 43  1  0
 25 44  1  0
 25 45  1  0
M  END
>  <meeko>  (13)
{"is_sidechain": false}

>  <source_group>  (13)
BACE1 canonical

>  <source_system>  (13)
BACE1_verubecestat

>  <source_run>  (13)
canonical_obabel_seed3301_ex32

>  <source_seed>  (13)
3301

>  <vina_pose_rank>  (13)
13

>  <vina_affinity_kcal_mol>  (13)
-7.444

>  <vina_rmsd_to_crystal_angstrom>  (13)
5.8574000000000002

$$$$
BACE1_verubecestat__canonical_obabel_seed3301_ex32__pose14
     RDKit          3D

 45 47  0  0  0  0  0  0  0  0999 V2000
   28.4250   14.9680   25.8270 C   0  0  0  0  0  0  0  0  0  0  0  0
   28.3000   15.2170   24.3770 N   0  0  0  0  0  0  0  0  0  0  0  0
   27.3780   16.1370   23.8310 C   0  0  0  0  0  0  0  0  0  0  0  0
   26.7180   16.8860   24.7680 N   0  0  0  0  0  0  0  0  0  0  0  0
   27.1790   16.2890   22.5580 N   0  0  0  0  0  0  0  0  0  0  0  0
   27.8180   15.4200   21.5710 C   0  0  2  0  0  0  0  0  0  0  0  0
   27.6970   16.2260   20.2750 C   0  0  0  0  0  0  0  0  0  0  0  0
   27.0730   14.1050   21.4020 C   0  0  0  0  0  0  0  0  0  0  0  0
   25.9500   13.8090   22.1730 C   0  0  0  0  0  0  0  0  0  0  0  0
   25.2590   12.6260   22.0440 C   0  0  0  0  0  0  0  0  0  0  0  0
   24.1460   12.4540   22.8780 N   0  0  0  0  0  0  0  0  0  0  0  0
   22.8060   12.5300   22.5440 C   0  0  0  0  0  0  0  0  0  0  0  0
   22.3690   12.8960   21.4610 O   0  0  0  0  0  0  0  0  0  0  0  0
   21.8640   12.0910   23.6030 C   0  0  0  0  0  0  0  0  0  0  0  0
   20.7190   11.3920   23.2620 C   0  0  0  0  0  0  0  0  0  0  0  0
   19.8750   11.0090   24.2900 C   0  0  0  0  0  0  0  0  0  0  0  0
   20.1940   11.3250   25.5960 C   0  0  0  0  0  0  0  0  0  0  0  0
   19.4000   10.9820   26.6250 F   0  0  0  0  0  0  0  0  0  0  0  0
   21.3530   12.0290   25.8340 C   0  0  0  0  0  0  0  0  0  0  0  0
   22.1880   12.4190   24.8580 N   0  0  0  0  0  0  0  0  0  0  0  0
   25.6540   11.6800   21.1070 C   0  0  0  0  0  0  0  0  0  0  0  0
   26.7690   11.9550   20.3350 C   0  0  0  0  0  0  0  0  0  0  0  0
   27.4710   13.1320   20.4980 C   0  0  0  0  0  0  0  0  0  0  0  0
   28.5790   13.3650   19.7480 F   0  0  0  0  0  0  0  0  0  0  0  0
   29.2930   15.2870   21.8750 C   0  0  0  0  0  0  0  0  0  0  0  0
   29.5420   14.4840   23.4380 S   0  0  0  0  0  0  0  0  0  0  0  0
   30.8120   14.9640   23.9530 O   0  0  0  0  0  0  0  0  0  0  0  0
   29.1650   13.1060   23.3890 O   0  0  0  0  0  0  0  0  0  0  0  0
   27.9991   15.8164   26.3828 H   0  0  0  0  0  0  0  0  0  0  0  0
   27.8818   14.0481   26.0892 H   0  0  0  0  0  0  0  0  0  0  0  0
   29.4872   14.8540   26.0892 H   0  0  0  0  0  0  0  0  0  0  0  0
   26.0540   17.5550   24.4850 H   0  0  0  0  0  0  0  0  0  0  0  0
   26.9080   16.7550   25.7260 H   0  0  0  0  0  0  0  0  0  0  0  0
   27.5377   17.2872   20.5167 H   0  0  0  0  0  0  0  0  0  0  0  0
   28.6214   16.1183   19.6886 H   0  0  0  0  0  0  0  0  0  0  0  0
   26.8450   15.8516   19.6886 H   0  0  0  0  0  0  0  0  0  0  0  0
   25.6038   14.5476   22.9110 H   0  0  0  0  0  0  0  0  0  0  0  0
   24.3440   12.2540   23.8210 H   0  0  0  0  0  0  0  0  0  0  0  0
   20.4886   11.1501   22.2140 H   0  0  0  0  0  0  0  0  0  0  0  0
   18.9518   10.4539   24.0671 H   0  0  0  0  0  0  0  0  0  0  0  0
   21.6068   12.2840   26.8735 H   0  0  0  0  0  0  0  0  0  0  0  0
   25.0969   10.7398   20.9822 H   0  0  0  0  0  0  0  0  0  0  0  0
   27.1003   11.2256   19.5812 H   0  0  0  0  0  0  0  0  0  0  0  0
   29.7726   14.6927   21.0833 H   0  0  0  0  0  0  0  0  0  0  0  0
   29.7368   16.2925   21.9196 H   0  0  0  0  0  0  0  0  0  0  0  0
  1  2  1  0
  2  3  1  0
  3  4  1  0
  3  5  2  0
  5  6  1  0
  6  7  1  6
  6  8  1  0
  8  9  2  0
  9 10  1  0
 10 11  1  0
 11 12  1  0
 12 13  2  0
 12 14  1  0
 14 15  2  0
 15 16  1  0
 16 17  2  0
 17 18  1  0
 17 19  1  0
 19 20  2  0
 10 21  2  0
 21 22  1  0
 22 23  2  0
 23 24  1  0
  6 25  1  0
 25 26  1  0
 26 27  2  0
 26 28  2  0
 26  2  1  0
 23  8  1  0
 20 14  1  0
  1 29  1  0
  1 30  1  0
  1 31  1  0
  4 32  1  0
  4 33  1  0
  7 34  1  0
  7 35  1  0
  7 36  1  0
  9 37  1  0
 11 38  1  0
 15 39  1  0
 16 40  1  0
 19 41  1  0
 21 42  1  0
 22 43  1  0
 25 44  1  0
 25 45  1  0
M  END
>  <meeko>  (14)
{"is_sidechain": false}

>  <source_group>  (14)
BACE1 canonical

>  <source_system>  (14)
BACE1_verubecestat

>  <source_run>  (14)
canonical_obabel_seed3301_ex32

>  <source_seed>  (14)
3301

>  <vina_pose_rank>  (14)
14

>  <vina_affinity_kcal_mol>  (14)
-7.4260000000000002

>  <vina_rmsd_to_crystal_angstrom>  (14)
7.9180000000000001

$$$$
BACE1_verubecestat__canonical_obabel_seed3301_ex32__pose15
     RDKit          3D

 45 47  0  0  0  0  0  0  0  0999 V2000
   25.0840   13.7830   19.2070 C   0  0  0  0  0  0  0  0  0  0  0  0
   26.3740   13.3780   19.7990 N   0  0  0  0  0  0  0  0  0  0  0  0
   26.6770   12.0430   20.1470 C   0  0  0  0  0  0  0  0  0  0  0  0
   25.7310   11.1370   19.7470 N   0  0  0  0  0  0  0  0  0  0  0  0
   27.7590   11.6860   20.7670 N   0  0  0  0  0  0  0  0  0  0  0  0
   28.7150   12.6710   21.2720 C   0  0  2  0  0  0  0  0  0  0  0  0
   29.9870   11.8420   21.4730 C   0  0  0  0  0  0  0  0  0  0  0  0
   28.2860   13.2460   22.6130 C   0  0  0  0  0  0  0  0  0  0  0  0
   27.0580   12.9100   23.1810 C   0  0  0  0  0  0  0  0  0  0  0  0
   26.6440   13.4170   24.3920 C   0  0  0  0  0  0  0  0  0  0  0  0
   25.3880   12.9980   24.8520 N   0  0  0  0  0  0  0  0  0  0  0  0
   24.2650   12.6810   24.1080 C   0  0  0  0  0  0  0  0  0  0  0  0
   24.1510   12.8440   22.9010 O   0  0  0  0  0  0  0  0  0  0  0  0
   23.1530   12.0650   24.8720 C   0  0  0  0  0  0  0  0  0  0  0  0
   22.5210   10.9350   24.3840 C   0  0  0  0  0  0  0  0  0  0  0  0
   21.4890   10.4040   25.1360 C   0  0  0  0  0  0  0  0  0  0  0  0
   21.1290   11.0010   26.3290 C   0  0  0  0  0  0  0  0  0  0  0  0
   20.1270   10.5270   27.0890 F   0  0  0  0  0  0  0  0  0  0  0  0
   21.8130   12.1270   26.7290 C   0  0  0  0  0  0  0  0  0  0  0  0
   22.8150   12.6680   26.0170 N   0  0  0  0  0  0  0  0  0  0  0  0
   27.4620   14.2790   25.1110 C   0  0  0  0  0  0  0  0  0  0  0  0
   28.6830   14.6260   24.5610 C   0  0  0  0  0  0  0  0  0  0  0  0
   29.0720   14.1350   23.3300 C   0  0  0  0  0  0  0  0  0  0  0  0
   30.2630   14.5140   22.7990 F   0  0  0  0  0  0  0  0  0  0  0  0
   29.0180   13.6960   20.2030 C   0  0  0  0  0  0  0  0  0  0  0  0
   27.5610   14.6250   19.7930 S   0  0  0  0  0  0  0  0  0  0  0  0
   27.7210   15.0590   18.4170 O   0  0  0  0  0  0  0  0  0  0  0  0
   27.1630   15.4820   20.8650 O   0  0  0  0  0  0  0  0  0  0  0  0
   24.3667   14.0082   20.0100 H   0  0  0  0  0  0  0  0  0  0  0  0
   25.2310   14.6782   18.5849 H   0  0  0  0  0  0  0  0  0  0  0  0
   24.6929   12.9644   18.5849 H   0  0  0  0  0  0  0  0  0  0  0  0
   25.8530   10.1800   19.9440 H   0  0  0  0  0  0  0  0  0  0  0  0
   24.9300   11.4420   19.2630 H   0  0  0  0  0  0  0  0  0  0  0  0
   30.1775   11.7178   22.5492 H   0  0  0  0  0  0  0  0  0  0  0  0
   29.8582   10.8539   21.0071 H   0  0  0  0  0  0  0  0  0  0  0  0
   30.8389   12.3588   21.0071 H   0  0  0  0  0  0  0  0  0  0  0  0
   26.3966   12.2153   22.6425 H   0  0  0  0  0  0  0  0  0  0  0  0
   25.2940   12.9180   25.8280 H   0  0  0  0  0  0  0  0  0  0  0  0
   22.8282   10.4759   23.4328 H   0  0  0  0  0  0  0  0  0  0  0  0
   20.9558    9.5081   24.7851 H   0  0  0  0  0  0  0  0  0  0  0  0
   21.5252   12.6061   27.6764 H   0  0  0  0  0  0  0  0  0  0  0  0
   27.1483   14.6740   26.0886 H   0  0  0  0  0  0  0  0  0  0  0  0
   29.3534   15.3023   25.1117 H   0  0  0  0  0  0  0  0  0  0  0  0
   29.7930   14.3840   20.5718 H   0  0  0  0  0  0  0  0  0  0  0  0
   29.3694   13.1732   19.3012 H   0  0  0  0  0  0  0  0  0  0  0  0
  1  2  1  0
  2  3  1  0
  3  4  1  0
  3  5  2  0
  5  6  1  0
  6  7  1  1
  6  8  1  0
  8  9  2  0
  9 10  1  0
 10 11  1  0
 11 12  1  0
 12 13  2  0
 12 14  1  0
 14 15  2  0
 15 16  1  0
 16 17  2  0
 17 18  1  0
 17 19  1  0
 19 20  2  0
 10 21  2  0
 21 22  1  0
 22 23  2  0
 23 24  1  0
  6 25  1  0
 25 26  1  0
 26 27  2  0
 26 28  2  0
 26  2  1  0
 23  8  1  0
 20 14  1  0
  1 29  1  0
  1 30  1  0
  1 31  1  0
  4 32  1  0
  4 33  1  0
  7 34  1  0
  7 35  1  0
  7 36  1  0
  9 37  1  0
 11 38  1  0
 15 39  1  0
 16 40  1  0
 19 41  1  0
 21 42  1  0
 22 43  1  0
 25 44  1  0
 25 45  1  0
M  END
>  <meeko>  (15)
{"is_sidechain": false}

>  <source_group>  (15)
BACE1 canonical

>  <source_system>  (15)
BACE1_verubecestat

>  <source_run>  (15)
canonical_obabel_seed3301_ex32

>  <source_seed>  (15)
3301

>  <vina_pose_rank>  (15)
15

>  <vina_affinity_kcal_mol>  (15)
-7.383

>  <vina_rmsd_to_crystal_angstrom>  (15)
7.7588999999999997

$$$$
BACE1_verubecestat__canonical_obabel_seed3301_ex32__pose16
     RDKit          3D

 45 47  0  0  0  0  0  0  0  0999 V2000
   17.0890   18.0880   27.1510 C   0  0  0  0  0  0  0  0  0  0  0  0
   16.6640   16.7600   26.6670 N   0  0  0  0  0  0  0  0  0  0  0  0
   15.8700   15.8780   27.4340 C   0  0  0  0  0  0  0  0  0  0  0  0
   15.4040   16.4240   28.6000 N   0  0  0  0  0  0  0  0  0  0  0  0
   15.5790   14.6680   27.0710 N   0  0  0  0  0  0  0  0  0  0  0  0
   16.1600   14.0650   25.8720 C   0  0  2  0  0  0  0  0  0  0  0  0
   15.2160   12.8940   25.5850 C   0  0  0  0  0  0  0  0  0  0  0  0
   17.5560   13.5180   26.1270 C   0  0  0  0  0  0  0  0  0  0  0  0
   18.4160   13.2200   25.0710 C   0  0  0  0  0  0  0  0  0  0  0  0
   19.6840   12.7220   25.2730 C   0  0  0  0  0  0  0  0  0  0  0  0
   20.4470   12.4680   24.1260 N   0  0  0  0  0  0  0  0  0  0  0  0
   20.4590   11.3300   23.3390 C   0  0  0  0  0  0  0  0  0  0  0  0
   19.8780   10.2850   23.6030 O   0  0  0  0  0  0  0  0  0  0  0  0
   21.2190   11.4450   22.0710 C   0  0  0  0  0  0  0  0  0  0  0  0
   21.9000   12.6130   21.7770 C   0  0  0  0  0  0  0  0  0  0  0  0
   22.5910   12.6660   20.5790 C   0  0  0  0  0  0  0  0  0  0  0  0
   22.5840   11.5750   19.7320 C   0  0  0  0  0  0  0  0  0  0  0  0
   23.2330   11.5840   18.5550 F   0  0  0  0  0  0  0  0  0  0  0  0
   21.8720   10.4590   20.1100 C   0  0  0  0  0  0  0  0  0  0  0  0
   21.1880   10.3800   21.2630 N   0  0  0  0  0  0  0  0  0  0  0  0
   20.1630   12.5170   26.5610 C   0  0  0  0  0  0  0  0  0  0  0  0
   19.3210   12.8050   27.6210 C   0  0  0  0  0  0  0  0  0  0  0  0
   18.0400   13.2730   27.4030 C   0  0  0  0  0  0  0  0  0  0  0  0
   17.2240   13.5200   28.4600 F   0  0  0  0  0  0  0  0  0  0  0  0
   16.0490   15.0200   24.7050 C   0  0  0  0  0  0  0  0  0  0  0  0
   17.0040   16.4870   25.0020 S   0  0  0  0  0  0  0  0  0  0  0  0
   16.3670   17.5540   24.2520 O   0  0  0  0  0  0  0  0  0  0  0  0
   18.4070   16.2150   24.9790 O   0  0  0  0  0  0  0  0  0  0  0  0
   17.0909   18.0940   28.2510 H   0  0  0  0  0  0  0  0  0  0  0  0
   18.1018   18.3061   26.7814 H   0  0  0  0  0  0  0  0  0  0  0  0
   16.3910   18.8536   26.7814 H   0  0  0  0  0  0  0  0  0  0  0  0
   14.8400   15.8870   29.2040 H   0  0  0  0  0  0  0  0  0  0  0  0
   15.6300   17.3520   28.8350 H   0  0  0  0  0  0  0  0  0  0  0  0
   14.8680   12.4623   26.5350 H   0  0  0  0  0  0  0  0  0  0  0  0
   14.3517   13.2529   25.0069 H   0  0  0  0  0  0  0  0  0  0  0  0
   15.7502   12.1256   25.0069 H   0  0  0  0  0  0  0  0  0  0  0  0
   18.0697   13.3885   24.0406 H   0  0  0  0  0  0  0  0  0  0  0  0
   21.0530   13.1910   23.8440 H   0  0  0  0  0  0  0  0  0  0  0  0
   21.8925   13.4676   22.4696 H   0  0  0  0  0  0  0  0  0  0  0  0
   23.1447   13.5752   20.3019 H   0  0  0  0  0  0  0  0  0  0  0  0
   21.8629    9.5903   19.4352 H   0  0  0  0  0  0  0  0  0  0  0  0
   21.1809   12.1372   26.7331 H   0  0  0  0  0  0  0  0  0  0  0  0
   19.6770   12.6591   28.6515 H   0  0  0  0  0  0  0  0  0  0  0  0
   16.4213   14.5245   23.7962 H   0  0  0  0  0  0  0  0  0  0  0  0
   14.9938   15.3042   24.5795 H   0  0  0  0  0  0  0  0  0  0  0  0
  1  2  1  0
  2  3  1  0
  3  4  1  0
  3  5  2  0
  5  6  1  0
  6  7  1  6
  6  8  1  0
  8  9  2  0
  9 10  1  0
 10 11  1  0
 11 12  1  0
 12 13  2  0
 12 14  1  0
 14 15  2  0
 15 16  1  0
 16 17  2  0
 17 18  1  0
 17 19  1  0
 19 20  2  0
 10 21  2  0
 21 22  1  0
 22 23  2  0
 23 24  1  0
  6 25  1  0
 25 26  1  0
 26 27  2  0
 26 28  2  0
 26  2  1  0
 23  8  1  0
 20 14  1  0
  1 29  1  0
  1 30  1  0
  1 31  1  0
  4 32  1  0
  4 33  1  0
  7 34  1  0
  7 35  1  0
  7 36  1  0
  9 37  1  0
 11 38  1  0
 15 39  1  0
 16 40  1  0
 19 41  1  0
 21 42  1  0
 22 43  1  0
 25 44  1  0
 25 45  1  0
M  END
>  <meeko>  (16)
{"is_sidechain": false}

>  <source_group>  (16)
BACE1 canonical

>  <source_system>  (16)
BACE1_verubecestat

>  <source_run>  (16)
canonical_obabel_seed3301_ex32

>  <source_seed>  (16)
3301

>  <vina_pose_rank>  (16)
16

>  <vina_affinity_kcal_mol>  (16)
-7.3650000000000002

>  <vina_rmsd_to_crystal_angstrom>  (16)
8.5045000000000002

$$$$
BACE1_verubecestat__canonical_obabel_seed3301_ex32__pose17
     RDKit          3D

 45 47  0  0  0  0  0  0  0  0999 V2000
   23.5140   13.7670   18.0960 C   0  0  0  0  0  0  0  0  0  0  0  0
   24.6410   13.0770   18.7550 N   0  0  0  0  0  0  0  0  0  0  0  0
   24.6400   11.6920   19.0320 C   0  0  0  0  0  0  0  0  0  0  0  0
   23.5710   11.0200   18.5020 N   0  0  0  0  0  0  0  0  0  0  0  0
   25.5710   11.0900   19.7050 N   0  0  0  0  0  0  0  0  0  0  0  0
   26.6570   11.8300   20.3460 C   0  0  2  0  0  0  0  0  0  0  0  0
   27.7150   10.7500   20.5840 C   0  0  0  0  0  0  0  0  0  0  0  0
   26.2370   12.4110   21.6880 C   0  0  0  0  0  0  0  0  0  0  0  0
   24.9490   12.2160   22.1850 C   0  0  0  0  0  0  0  0  0  0  0  0
   24.5410   12.7320   23.3940 C   0  0  0  0  0  0  0  0  0  0  0  0
   23.2220   12.4600   23.7790 N   0  0  0  0  0  0  0  0  0  0  0  0
   22.7160   12.3110   25.0580 C   0  0  0  0  0  0  0  0  0  0  0  0
   23.3870   12.2660   26.0810 O   0  0  0  0  0  0  0  0  0  0  0  0
   21.2370   12.2400   25.1500 C   0  0  0  0  0  0  0  0  0  0  0  0
   20.5700   11.1140   24.6980 C   0  0  0  0  0  0  0  0  0  0  0  0
   19.1910   11.1020   24.8060 C   0  0  0  0  0  0  0  0  0  0  0  0
   18.5340   12.1870   25.3520 C   0  0  0  0  0  0  0  0  0  0  0  0
   17.1950   12.2240   25.4680 F   0  0  0  0  0  0  0  0  0  0  0  0
   19.2840   13.2640   25.7670 C   0  0  0  0  0  0  0  0  0  0  0  0
   20.6230   13.3070   25.6710 N   0  0  0  0  0  0  0  0  0  0  0  0
   25.4240   13.4580   24.1830 C   0  0  0  0  0  0  0  0  0  0  0  0
   26.7060   13.6640   23.7040 C   0  0  0  0  0  0  0  0  0  0  0  0
   27.0910   13.1680   22.4740 C   0  0  0  0  0  0  0  0  0  0  0  0
   28.3460   13.4100   22.0130 F   0  0  0  0  0  0  0  0  0  0  0  0
   27.2510   12.8260   19.3750 C   0  0  0  0  0  0  0  0  0  0  0  0
   26.0500   14.0520   18.9220 S   0  0  0  0  0  0  0  0  0  0  0  0
   26.4120   14.5160   17.5940 O   0  0  0  0  0  0  0  0  0  0  0  0
   25.7390   14.9170   20.0170 O   0  0  0  0  0  0  0  0  0  0  0  0
   22.8394   14.1800   18.8605 H   0  0  0  0  0  0  0  0  0  0  0  0
   23.9005   14.5835   17.4683 H   0  0  0  0  0  0  0  0  0  0  0  0
   22.9625   13.0515   17.4683 H   0  0  0  0  0  0  0  0  0  0  0  0
   23.4820   10.0500   18.6410 H   0  0  0  0  0  0  0  0  0  0  0  0
   22.8920   11.5080   17.9810 H   0  0  0  0  0  0  0  0  0  0  0  0
   27.8556   10.6065   21.6655 H   0  0  0  0  0  0  0  0  0  0  0  0
   27.3833    9.8051   20.1288 H   0  0  0  0  0  0  0  0  0  0  0  0
   28.6665   11.0622   20.1288 H   0  0  0  0  0  0  0  0  0  0  0  0
   24.2338   11.6291   21.5900 H   0  0  0  0  0  0  0  0  0  0  0  0
   22.5720   12.3640   23.0460 H   0  0  0  0  0  0  0  0  0  0  0  0
   21.1162   10.2610   24.2691 H   0  0  0  0  0  0  0  0  0  0  0  0
   18.6187   10.2296   24.4575 H   0  0  0  0  0  0  0  0  0  0  0  0
   18.7618   14.1309   26.1979 H   0  0  0  0  0  0  0  0  0  0  0  0
   25.1135   13.8574   25.1597 H   0  0  0  0  0  0  0  0  0  0  0  0
   27.4278   14.2302   24.3110 H   0  0  0  0  0  0  0  0  0  0  0  0
   28.1123   13.3212   19.8472 H   0  0  0  0  0  0  0  0  0  0  0  0
   27.5691   12.2901   18.4685 H   0  0  0  0  0  0  0  0  0  0  0  0
  1  2  1  0
  2  3  1  0
  3  4  1  0
  3  5  2  0
  5  6  1  0
  6  7  1  1
  6  8  1  0
  8  9  2  0
  9 10  1  0
 10 11  1  0
 11 12  1  0
 12 13  2  0
 12 14  1  0
 14 15  2  0
 15 16  1  0
 16 17  2  0
 17 18  1  0
 17 19  1  0
 19 20  2  0
 10 21  2  0
 21 22  1  0
 22 23  2  0
 23 24  1  0
  6 25  1  0
 25 26  1  0
 26 27  2  0
 26 28  2  0
 26  2  1  0
 23  8  1  0
 20 14  1  0
  1 29  1  0
  1 30  1  0
  1 31  1  0
  4 32  1  0
  4 33  1  0
  7 34  1  0
  7 35  1  0
  7 36  1  0
  9 37  1  0
 11 38  1  0
 15 39  1  0
 16 40  1  0
 19 41  1  0
 21 42  1  0
 22 43  1  0
 25 44  1  0
 25 45  1  0
M  END
>  <meeko>  (17)
{"is_sidechain": false}

>  <source_group>  (17)
BACE1 canonical

>  <source_system>  (17)
BACE1_verubecestat

>  <source_run>  (17)
canonical_obabel_seed3301_ex32

>  <source_seed>  (17)
3301

>  <vina_pose_rank>  (17)
17

>  <vina_affinity_kcal_mol>  (17)
-7.3120000000000003

>  <vina_rmsd_to_crystal_angstrom>  (17)
7.9145000000000003

$$$$
BACE1_verubecestat__canonical_obabel_seed3301_ex32__pose18
     RDKit          3D

 45 47  0  0  0  0  0  0  0  0999 V2000
   28.2090   14.6110   25.8210 C   0  0  0  0  0  0  0  0  0  0  0  0
   28.1710   15.0350   24.4080 N   0  0  0  0  0  0  0  0  0  0  0  0
   27.1870   15.9080   23.8920 C   0  0  0  0  0  0  0  0  0  0  0  0
   26.3650   16.4440   24.8460 N   0  0  0  0  0  0  0  0  0  0  0  0
   27.0740   16.2050   22.6340 N   0  0  0  0  0  0  0  0  0  0  0  0
   27.8950   15.5540   21.6140 C   0  0  2  0  0  0  0  0  0  0  0  0
   27.7790   16.5070   20.4210 C   0  0  0  0  0  0  0  0  0  0  0  0
   27.3390   14.1970   21.2140 C   0  0  0  0  0  0  0  0  0  0  0  0
   26.1070   13.7540   21.6940 C   0  0  0  0  0  0  0  0  0  0  0  0
   25.5810   12.5290   21.3510 C   0  0  0  0  0  0  0  0  0  0  0  0
   24.3330   12.2060   21.9000 N   0  0  0  0  0  0  0  0  0  0  0  0
   23.0930   12.2370   21.2860 C   0  0  0  0  0  0  0  0  0  0  0  0
   22.8710   12.6860   20.1700 O   0  0  0  0  0  0  0  0  0  0  0  0
   21.9850   11.6350   22.0680 C   0  0  0  0  0  0  0  0  0  0  0  0
   21.4180   12.3380   23.1160 C   0  0  0  0  0  0  0  0  0  0  0  0
   20.3890   11.7280   23.8120 C   0  0  0  0  0  0  0  0  0  0  0  0
   19.9650   10.4660   23.4460 C   0  0  0  0  0  0  0  0  0  0  0  0
   18.9760    9.8300   24.0980 F   0  0  0  0  0  0  0  0  0  0  0  0
   20.5950    9.8440   22.3920 C   0  0  0  0  0  0  0  0  0  0  0  0
   21.6000   10.4080   21.7020 N   0  0  0  0  0  0  0  0  0  0  0  0
   26.2640   11.6880   20.4820 C   0  0  0  0  0  0  0  0  0  0  0  0
   27.4900   12.1100   19.9990 C   0  0  0  0  0  0  0  0  0  0  0  0
   28.0210   13.3280   20.3770 C   0  0  0  0  0  0  0  0  0  0  0  0
   29.2390   13.7050   19.9120 F   0  0  0  0  0  0  0  0  0  0  0  0
   29.3470   15.5520   22.0400 C   0  0  0  0  0  0  0  0  0  0  0  0
   29.5680   14.5810   23.5090 S   0  0  0  0  0  0  0  0  0  0  0  0
   30.7210   15.1310   24.1990 O   0  0  0  0  0  0  0  0  0  0  0  0
   29.3730   13.1880   23.2550 O   0  0  0  0  0  0  0  0  0  0  0  0
   28.1298   15.4947   26.4712 H   0  0  0  0  0  0  0  0  0  0  0  0
   27.3682   13.9310   26.0225 H   0  0  0  0  0  0  0  0  0  0  0  0
   29.1573   14.0913   26.0225 H   0  0  0  0  0  0  0  0  0  0  0  0
   25.6470   17.0650   24.5850 H   0  0  0  0  0  0  0  0  0  0  0  0
   26.4920   16.2100   25.7940 H   0  0  0  0  0  0  0  0  0  0  0  0
   27.6536   17.5372   20.7855 H   0  0  0  0  0  0  0  0  0  0  0  0
   28.6916   16.4427   19.8102 H   0  0  0  0  0  0  0  0  0  0  0  0
   26.9085   16.2256   19.8102 H   0  0  0  0  0  0  0  0  0  0  0  0
   25.5354   14.4064   22.3705 H   0  0  0  0  0  0  0  0  0  0  0  0
   24.3390   11.9210   22.8420 H   0  0  0  0  0  0  0  0  0  0  0  0
   21.7717   13.3440   23.3859 H   0  0  0  0  0  0  0  0  0  0  0  0
   19.9099   12.2475   24.6550 H   0  0  0  0  0  0  0  0  0  0  0  0
   20.2596    8.8376   22.1010 H   0  0  0  0  0  0  0  0  0  0  0  0
   25.8429   10.7157   20.1866 H   0  0  0  0  0  0  0  0  0  0  0  0
   28.0497   11.4666   19.3042 H   0  0  0  0  0  0  0  0  0  0  0  0
   29.9601   15.1279   21.2311 H   0  0  0  0  0  0  0  0  0  0  0  0
   29.6555   16.5867   22.2501 H   0  0  0  0  0  0  0  0  0  0  0  0
  1  2  1  0
  2  3  1  0
  3  4  1  0
  3  5  2  0
  5  6  1  0
  6  7  1  6
  6  8  1  0
  8  9  2  0
  9 10  1  0
 10 11  1  0
 11 12  1  0
 12 13  2  0
 12 14  1  0
 14 15  2  0
 15 16  1  0
 16 17  2  0
 17 18  1  0
 17 19  1  0
 19 20  2  0
 10 21  2  0
 21 22  1  0
 22 23  2  0
 23 24  1  0
  6 25  1  0
 25 26  1  0
 26 27  2  0
 26 28  2  0
 26  2  1  0
 23  8  1  0
 20 14  1  0
  1 29  1  0
  1 30  1  0
  1 31  1  0
  4 32  1  0
  4 33  1  0
  7 34  1  0
  7 35  1  0
  7 36  1  0
  9 37  1  0
 11 38  1  0
 15 39  1  0
 16 40  1  0
 19 41  1  0
 21 42  1  0
 22 43  1  0
 25 44  1  0
 25 45  1  0
M  END
>  <meeko>  (18)
{"is_sidechain": false}

>  <source_group>  (18)
BACE1 canonical

>  <source_system>  (18)
BACE1_verubecestat

>  <source_run>  (18)
canonical_obabel_seed3301_ex32

>  <source_seed>  (18)
3301

>  <vina_pose_rank>  (18)
18

>  <vina_affinity_kcal_mol>  (18)
-7.234

>  <vina_rmsd_to_crystal_angstrom>  (18)
7.7821999999999996

$$$$
BACE1_verubecestat__canonical_obabel_seed3301_ex32__pose19
     RDKit          3D

 45 47  0  0  0  0  0  0  0  0999 V2000
   27.5670   15.8870   24.6100 C   0  0  0  0  0  0  0  0  0  0  0  0
   28.2740   15.5410   23.3600 N   0  0  0  0  0  0  0  0  0  0  0  0
   27.8630   16.0040   22.0900 C   0  0  0  0  0  0  0  0  0  0  0  0
   26.8470   16.9210   22.1350 N   0  0  0  0  0  0  0  0  0  0  0  0
   28.4040   15.6240   20.9740 N   0  0  0  0  0  0  0  0  0  0  0  0
   29.4230   14.5760   20.9320 C   0  0  2  0  0  0  0  0  0  0  0  0
   30.0840   14.7950   19.5680 C   0  0  0  0  0  0  0  0  0  0  0  0
   28.8100   13.1840   20.9620 C   0  0  0  0  0  0  0  0  0  0  0  0
   27.4560   13.0000   21.2360 C   0  0  0  0  0  0  0  0  0  0  0  0
   26.8760   11.7520   21.2730 C   0  0  0  0  0  0  0  0  0  0  0  0
   25.5050   11.7050   21.5580 N   0  0  0  0  0  0  0  0  0  0  0  0
   24.4530   11.5150   20.6800 C   0  0  0  0  0  0  0  0  0  0  0  0
   24.5510   11.4840   19.4600 O   0  0  0  0  0  0  0  0  0  0  0  0
   23.1290   11.3040   21.3140 C   0  0  0  0  0  0  0  0  0  0  0  0
   22.4190   12.3840   21.8080 C   0  0  0  0  0  0  0  0  0  0  0  0
   21.1900   12.1280   22.3910 C   0  0  0  0  0  0  0  0  0  0  0  0
   20.7170   10.8320   22.4580 C   0  0  0  0  0  0  0  0  0  0  0  0
   19.5340   10.5350   23.0230 F   0  0  0  0  0  0  0  0  0  0  0  0
   21.4990    9.8230   21.9430 C   0  0  0  0  0  0  0  0  0  0  0  0
   22.6980   10.0400   21.3770 N   0  0  0  0  0  0  0  0  0  0  0  0
   27.6320   10.6160   21.0110 C   0  0  0  0  0  0  0  0  0  0  0  0
   28.9790   10.7810   20.7410 C   0  0  0  0  0  0  0  0  0  0  0  0
   29.5540   12.0360   20.7390 C   0  0  0  0  0  0  0  0  0  0  0  0
   30.8840   12.1670   20.4990 F   0  0  0  0  0  0  0  0  0  0  0  0
   30.4780   14.8350   21.9830 C   0  0  0  0  0  0  0  0  0  0  0  0
   29.7780   14.7420   23.6110 S   0  0  0  0  0  0  0  0  0  0  0  0
   30.5850   15.6020   24.4590 O   0  0  0  0  0  0  0  0  0  0  0  0
   29.4020   13.4050   23.9490 O   0  0  0  0  0  0  0  0  0  0  0  0
   28.1798   15.5871   25.4729 H   0  0  0  0  0  0  0  0  0  0  0  0
   27.3922   16.9725   24.6440 H   0  0  0  0  0  0  0  0  0  0  0  0
   26.6026   15.3590   24.6440 H   0  0  0  0  0  0  0  0  0  0  0  0
   26.4910   17.3020   21.3000 H   0  0  0  0  0  0  0  0  0  0  0  0
   26.4720   17.1990   23.0020 H   0  0  0  0  0  0  0  0  0  0  0  0
   31.1191   15.1379   19.7130 H   0  0  0  0  0  0  0  0  0  0  0  0
   30.0863   13.8496   19.0057 H   0  0  0  0  0  0  0  0  0  0  0  0
   29.5214   15.5548   19.0057 H   0  0  0  0  0  0  0  0  0  0  0  0
   26.8288   13.8827   21.4295 H   0  0  0  0  0  0  0  0  0  0  0  0
   25.2590   11.8220   22.5040 H   0  0  0  0  0  0  0  0  0  0  0  0
   22.8163   13.4075   21.7400 H   0  0  0  0  0  0  0  0  0  0  0  0
   20.5912   12.9550   22.8002 H   0  0  0  0  0  0  0  0  0  0  0  0
   21.1245    8.7901   21.9974 H   0  0  0  0  0  0  0  0  0  0  0  0
   27.1737    9.6161   21.0180 H   0  0  0  0  0  0  0  0  0  0  0  0
   29.6005    9.8995   20.5249 H   0  0  0  0  0  0  0  0  0  0  0  0
   31.2741   14.0818   21.8887 H   0  0  0  0  0  0  0  0  0  0  0  0
   30.8877   15.8445   21.8314 H   0  0  0  0  0  0  0  0  0  0  0  0
  1  2  1  0
  2  3  1  0
  3  4  1  0
  3  5  2  0
  5  6  1  0
  6  7  1  6
  6  8  1  0
  8  9  2  0
  9 10  1  0
 10 11  1  0
 11 12  1  0
 12 13  2  0
 12 14  1  0
 14 15  2  0
 15 16  1  0
 16 17  2  0
 17 18  1  0
 17 19  1  0
 19 20  2  0
 10 21  2  0
 21 22  1  0
 22 23  2  0
 23 24  1  0
  6 25  1  0
 25 26  1  0
 26 27  2  0
 26 28  2  0
 26  2  1  0
 23  8  1  0
 20 14  1  0
  1 29  1  0
  1 30  1  0
  1 31  1  0
  4 32  1  0
  4 33  1  0
  7 34  1  0
  7 35  1  0
  7 36  1  0
  9 37  1  0
 11 38  1  0
 15 39  1  0
 16 40  1  0
 19 41  1  0
 21 42  1  0
 22 43  1  0
 25 44  1  0
 25 45  1  0
M  END
>  <meeko>  (19)
{"is_sidechain": false}

>  <source_group>  (19)
BACE1 canonical

>  <source_system>  (19)
BACE1_verubecestat

>  <source_run>  (19)
canonical_obabel_seed3301_ex32

>  <source_seed>  (19)
3301

>  <vina_pose_rank>  (19)
19

>  <vina_affinity_kcal_mol>  (19)
-7.226

>  <vina_rmsd_to_crystal_angstrom>  (19)
7.8548

$$$$
BACE1_verubecestat__canonical_obabel_seed3301_ex32__pose20
     RDKit          3D

 45 47  0  0  0  0  0  0  0  0999 V2000
   19.8240   15.6760   27.6960 C   0  0  0  0  0  0  0  0  0  0  0  0
   19.9120   14.2110   27.5340 N   0  0  0  0  0  0  0  0  0  0  0  0
   20.6720   13.3850   28.3920 C   0  0  0  0  0  0  0  0  0  0  0  0
   21.1950   14.0410   29.4740 N   0  0  0  0  0  0  0  0  0  0  0  0
   20.8480   12.1140   28.2010 N   0  0  0  0  0  0  0  0  0  0  0  0
   20.3650   11.4450   26.9940 C   0  0  2  0  0  0  0  0  0  0  0  0
   20.3560    9.9690   27.4010 C   0  0  0  0  0  0  0  0  0  0  0  0
   21.3170   11.6250   25.8220 C   0  0  0  0  0  0  0  0  0  0  0  0
   22.5790   12.1910   25.9990 C   0  0  0  0  0  0  0  0  0  0  0  0
   23.4590   12.3690   24.9570 C   0  0  0  0  0  0  0  0  0  0  0  0
   24.6960   12.9470   25.2710 N   0  0  0  0  0  0  0  0  0  0  0  0
   25.6440   13.4670   24.4070 C   0  0  0  0  0  0  0  0  0  0  0  0
   25.6040   13.3840   23.1870 O   0  0  0  0  0  0  0  0  0  0  0  0
   26.7570   14.2010   25.0560 C   0  0  0  0  0  0  0  0  0  0  0  0
   26.4830   15.2130   25.9600 C   0  0  0  0  0  0  0  0  0  0  0  0
   27.5590   15.8670   26.5340 C   0  0  0  0  0  0  0  0  0  0  0  0
   28.8470   15.4960   26.1980 C   0  0  0  0  0  0  0  0  0  0  0  0
   29.9230   16.1080   26.7220 F   0  0  0  0  0  0  0  0  0  0  0  0
   29.0180   14.4810   25.2840 C   0  0  0  0  0  0  0  0  0  0  0  0
   27.9940   13.8330   24.7070 N   0  0  0  0  0  0  0  0  0  0  0  0
   23.1210   11.9610   23.6730 C   0  0  0  0  0  0  0  0  0  0  0  0
   21.8710   11.4000   23.4770 C   0  0  0  0  0  0  0  0  0  0  0  0
   20.9850   11.2570   24.5270 C   0  0  0  0  0  0  0  0  0  0  0  0
   19.7540   10.7310   24.3030 F   0  0  0  0  0  0  0  0  0  0  0  0
   18.9300   11.8380   26.7200 C   0  0  0  0  0  0  0  0  0  0  0  0
   18.8120   13.5750   26.3720 S   0  0  0  0  0  0  0  0  0  0  0  0
   17.4780   13.9870   26.7720 O   0  0  0  0  0  0  0  0  0  0  0  0
   19.4120   13.9030   25.1170 O   0  0  0  0  0  0  0  0  0  0  0  0
   19.8090   15.9262   28.7671 H   0  0  0  0  0  0  0  0  0  0  0  0
   20.6953   16.1504   27.2208 H   0  0  0  0  0  0  0  0  0  0  0  0
   18.9022   16.0427   27.2208 H   0  0  0  0  0  0  0  0  0  0  0  0
   21.7400   13.5500   30.1300 H   0  0  0  0  0  0  0  0  0  0  0  0
   21.0250   15.0030   29.5960 H   0  0  0  0  0  0  0  0  0  0  0  0
   20.3555    9.8912   28.4982 H   0  0  0  0  0  0  0  0  0  0  0  0
   19.4549    9.4832   26.9986 H   0  0  0  0  0  0  0  0  0  0  0  0
   21.2511    9.4722   26.9986 H   0  0  0  0  0  0  0  0  0  0  0  0
   22.8817   12.5065   27.0084 H   0  0  0  0  0  0  0  0  0  0  0  0
   24.9190   12.9900   26.2290 H   0  0  0  0  0  0  0  0  0  0  0  0
   25.4481   15.4872   26.2127 H   0  0  0  0  0  0  0  0  0  0  0  0
   27.3895   16.6798   27.2556 H   0  0  0  0  0  0  0  0  0  0  0  0
   30.0429   14.1869   25.0136 H   0  0  0  0  0  0  0  0  0  0  0  0
   23.8258   12.0802   22.8369 H   0  0  0  0  0  0  0  0  0  0  0  0
   21.5791   11.0634   22.4713 H   0  0  0  0  0  0  0  0  0  0  0  0
   18.5589   11.2700   25.8542 H   0  0  0  0  0  0  0  0  0  0  0  0
   18.3250   11.6134   27.6108 H   0  0  0  0  0  0  0  0  0  0  0  0
  1  2  1  0
  2  3  1  0
  3  4  1  0
  3  5  2  0
  5  6  1  0
  6  7  1  1
  6  8  1  0
  8  9  2  0
  9 10  1  0
 10 11  1  0
 11 12  1  0
 12 13  2  0
 12 14  1  0
 14 15  2  0
 15 16  1  0
 16 17  2  0
 17 18  1  0
 17 19  1  0
 19 20  2  0
 10 21  2  0
 21 22  1  0
 22 23  2  0
 23 24  1  0
  6 25  1  0
 25 26  1  0
 26 27  2  0
 26 28  2  0
 26  2  1  0
 23  8  1  0
 20 14  1  0
  1 29  1  0
  1 30  1  0
  1 31  1  0
  4 32  1  0
  4 33  1  0
  7 34  1  0
  7 35  1  0
  7 36  1  0
  9 37  1  0
 11 38  1  0
 15 39  1  0
 16 40  1  0
 19 41  1  0
 21 42  1  0
 22 43  1  0
 25 44  1  0
 25 45  1  0
M  END
>  <meeko>  (20)
{"is_sidechain": false}

>  <source_group>  (20)
BACE1 canonical

>  <source_system>  (20)
BACE1_verubecestat

>  <source_run>  (20)
canonical_obabel_seed3301_ex32

>  <source_seed>  (20)
3301

>  <vina_pose_rank>  (20)
20

>  <vina_affinity_kcal_mol>  (20)
-7.2190000000000003

>  <vina_rmsd_to_crystal_angstrom>  (20)
5.8865999999999996

$$$$
