CHRNA7_encenicline__canonical_obabel_seed1103_ex32__pose01
     RDKit          3D

 38 41  0  0  0  0  0  0  0  0999 V2000
  143.6450  140.7060   90.0180 O   0  0  0  0  0  0  0  0  0  0  0  0
  143.0930  139.6910   90.2800 C   0  0  0  0  0  0  0  0  0  0  0  0
  141.6480  139.6130   90.1930 N   0  0  0  0  0  0  0  0  0  0  0  0
  140.8780  140.8080   89.7800 C   0  0  1  0  0  0  0  0  0  0  0  0
  140.5220  140.7130   88.2830 C   0  0  0  0  0  0  0  0  0  0  0  0
  139.1390  140.7610   88.0870 N   0  0  0  0  0  0  0  0  0  0  0  0
  138.6210  141.9240   88.6120 C   0  0  0  0  0  0  0  0  0  0  0  0
  138.8910  142.0300   90.0840 C   0  0  0  0  0  0  0  0  0  0  0  0
  139.6340  140.8880   90.5400 C   0  0  0  0  0  0  0  0  0  0  0  0
  138.8480  139.6880   90.2640 C   0  0  0  0  0  0  0  0  0  0  0  0
  138.5300  139.6500   88.7210 C   0  0  0  0  0  0  0  0  0  0  0  0
  143.9160  138.4690   90.7040 C   0  0  0  0  0  0  0  0  0  0  0  0
  143.4230  137.2380   90.9750 C   0  0  0  0  0  0  0  0  0  0  0  0
  144.3210  136.1870   91.3600 C   0  0  0  0  0  0  0  0  0  0  0  0
  143.9840  134.8950   91.6630 C   0  0  0  0  0  0  0  0  0  0  0  0
  144.9740  133.9810   92.0240 C   0  0  0  0  0  0  0  0  0  0  0  0
  146.3190  134.3860   92.0770 C   0  0  0  0  0  0  0  0  0  0  0  0
  146.6700  135.7040   91.7670 C   0  0  0  0  0  0  0  0  0  0  0  0
  148.3780  136.2120   91.8340 Cl  0  0  0  0  0  0  0  0  0  0  0  0
  145.6960  136.6060   91.4120 C   0  0  0  0  0  0  0  0  0  0  0  0
  145.6370  138.3600   90.9370 S   0  0  0  0  0  0  0  0  0  0  0  0
  141.1830  138.7720   90.4060 H   0  0  0  0  0  0  0  0  0  0  0  0
  141.4944  141.6995   89.9678 H   0  0  0  0  0  0  0  0  0  0  0  0
  140.9892  141.5538   87.7493 H   0  0  0  0  0  0  0  0  0  0  0  0
  140.8947  139.7527   87.8972 H   0  0  0  0  0  0  0  0  0  0  0  0
  139.0810  142.7828   88.1013 H   0  0  0  0  0  0  0  0  0  0  0  0
  137.5315  141.9163   88.4603 H   0  0  0  0  0  0  0  0  0  0  0  0
  139.4722  142.9429   90.2812 H   0  0  0  0  0  0  0  0  0  0  0  0
  137.9318  142.0695   90.6210 H   0  0  0  0  0  0  0  0  0  0  0  0
  139.8468  140.9733   91.6158 H   0  0  0  0  0  0  0  0  0  0  0  0
  139.4222  138.7937   90.5477 H   0  0  0  0  0  0  0  0  0  0  0  0
  137.9133  139.7051   90.8437 H   0  0  0  0  0  0  0  0  0  0  0  0
  138.9243  138.7189   88.2880 H   0  0  0  0  0  0  0  0  0  0  0  0
  137.4413  139.6920   88.5693 H   0  0  0  0  0  0  0  0  0  0  0  0
  142.3427  137.0447   90.9007 H   0  0  0  0  0  0  0  0  0  0  0  0
  142.9316  134.5775   91.6217 H   0  0  0  0  0  0  0  0  0  0  0  0
  144.7021  132.9432   92.2672 H   0  0  0  0  0  0  0  0  0  0  0  0
  147.0980  133.6641   92.3632 H   0  0  0  0  0  0  0  0  0  0  0  0
  1  2  2  0
  2  3  1  0
  3  4  1  0
  4  5  1  0
  5  6  1  0
  6  7  1  0
  7  8  1  0
  8  9  1  0
  9 10  1  0
 10 11  1  0
  2 12  1  0
 12 13  2  0
 13 14  1  0
 14 15  2  0
 15 16  1  0
 16 17  2  0
 17 18  1  0
 18 19  1  0
 18 20  2  0
 20 21  1  0
  9  4  1  0
 21 12  1  0
 11  6  1  0
 20 14  1  0
  3 22  1  0
  4 23  1  6
  5 24  1  0
  5 25  1  0
  7 26  1  0
  7 27  1  0
  8 28  1  0
  8 29  1  0
  9 30  1  0
 10 31  1  0
 10 32  1  0
 11 33  1  0
 11 34  1  0
 13 35  1  0
 15 36  1  0
 16 37  1  0
 17 38  1  0
M  END
>  <meeko>  (1)
{"is_sidechain": false}

>  <source_group>  (1)
CHRNA7 canonical

>  <source_system>  (1)
CHRNA7_encenicline

>  <source_run>  (1)
canonical_obabel_seed1103_ex32

>  <source_seed>  (1)
1103

>  <vina_pose_rank>  (1)
1

>  <vina_affinity_kcal_mol>  (1)
-9.8710000000000004

>  <vina_rmsd_to_crystal_angstrom>  (1)
0.29120000000000001

$$$$
CHRNA7_encenicline__canonical_obabel_seed1103_ex32__pose02
     RDKit          3D

 38 41  0  0  0  0  0  0  0  0999 V2000
  143.8460  140.8720   89.9970 O   0  0  0  0  0  0  0  0  0  0  0  0
  143.3600  139.8170   90.2270 C   0  0  0  0  0  0  0  0  0  0  0  0
  141.9310  139.6310   90.0650 N   0  0  0  0  0  0  0  0  0  0  0  0
  141.0950  140.7670   89.6160 C   0  0  1  0  0  0  0  0  0  0  0  0
  140.6730  140.5620   88.1480 C   0  0  0  0  0  0  0  0  0  0  0  0
  139.2820  140.5450   88.0180 N   0  0  0  0  0  0  0  0  0  0  0  0
  138.7420  141.7210   88.4930 C   0  0  0  0  0  0  0  0  0  0  0  0
  139.0780  141.9320   89.9390 C   0  0  0  0  0  0  0  0  0  0  0  0
  139.8860  140.8510   90.4300 C   0  0  0  0  0  0  0  0  0  0  0  0
  139.1370  139.6070   90.2700 C   0  0  0  0  0  0  0  0  0  0  0  0
  138.7480  139.4570   88.7500 C   0  0  0  0  0  0  0  0  0  0  0  0
  144.2490  138.6580   90.6900 C   0  0  0  0  0  0  0  0  0  0  0  0
  145.5840  138.7210   90.9030 C   0  0  0  0  0  0  0  0  0  0  0  0
  146.2850  137.5470   91.3400 C   0  0  0  0  0  0  0  0  0  0  0  0
  147.6260  137.4460   91.6000 C   0  0  0  0  0  0  0  0  0  0  0  0
  148.1670  136.2300   92.0190 C   0  0  0  0  0  0  0  0  0  0  0  0
  147.3350  135.1070   92.1740 C   0  0  0  0  0  0  0  0  0  0  0  0
  145.9650  135.2040   91.9110 C   0  0  0  0  0  0  0  0  0  0  0  0
  144.9140  133.7780   92.1110 Cl  0  0  0  0  0  0  0  0  0  0  0  0
  145.4300  136.4010   91.4980 C   0  0  0  0  0  0  0  0  0  0  0  0
  143.7810  137.0200   91.0470 S   0  0  0  0  0  0  0  0  0  0  0  0
  141.5200  138.7560   90.2520 H   0  0  0  0  0  0  0  0  0  0  0  0
  141.6837  141.6908   89.7164 H   0  0  0  0  0  0  0  0  0  0  0  0
  141.0798  141.3835   87.5400 H   0  0  0  0  0  0  0  0  0  0  0  0
  141.0659  139.5933   87.8055 H   0  0  0  0  0  0  0  0  0  0  0  0
  139.1418  142.5612   87.9063 H   0  0  0  0  0  0  0  0  0  0  0  0
  137.6478  141.6635   88.3965 H   0  0  0  0  0  0  0  0  0  0  0  0
  139.6315  142.8763   90.0481 H   0  0  0  0  0  0  0  0  0  0  0  0
  138.1444  141.9708   90.5194 H   0  0  0  0  0  0  0  0  0  0  0  0
  140.1448  141.0147   91.4865 H   0  0  0  0  0  0  0  0  0  0  0  0
  139.7597  138.7551   90.5806 H   0  0  0  0  0  0  0  0  0  0  0  0
  138.2309  139.6267   90.8934 H   0  0  0  0  0  0  0  0  0  0  0  0
  139.1576  138.5145   88.3577 H   0  0  0  0  0  0  0  0  0  0  0  0
  137.6526  139.4496   88.6502 H   0  0  0  0  0  0  0  0  0  0  0  0
  146.1273  139.6639   90.7426 H   0  0  0  0  0  0  0  0  0  0  0  0
  148.2770  138.3243   91.4784 H   0  0  0  0  0  0  0  0  0  0  0  0
  149.2440  136.1499   92.2280 H   0  0  0  0  0  0  0  0  0  0  0  0
  147.7634  134.1488   92.5033 H   0  0  0  0  0  0  0  0  0  0  0  0
  1  2  2  0
  2  3  1  0
  3  4  1  0
  4  5  1  0
  5  6  1  0
  6  7  1  0
  7  8  1  0
  8  9  1  0
  9 10  1  0
 10 11  1  0
  2 12  1  0
 12 13  2  0
 13 14  1  0
 14 15  2  0
 15 16  1  0
 16 17  2  0
 17 18  1  0
 18 19  1  0
 18 20  2  0
 20 21  1  0
  9  4  1  0
 21 12  1  0
 11  6  1  0
 20 14  1  0
  3 22  1  0
  4 23  1  6
  5 24  1  0
  5 25  1  0
  7 26  1  0
  7 27  1  0
  8 28  1  0
  8 29  1  0
  9 30  1  0
 10 31  1  0
 10 32  1  0
 11 33  1  0
 11 34  1  0
 13 35  1  0
 15 36  1  0
 16 37  1  0
 17 38  1  0
M  END
>  <meeko>  (2)
{"is_sidechain": false}

>  <source_group>  (2)
CHRNA7 canonical

>  <source_system>  (2)
CHRNA7_encenicline

>  <source_run>  (2)
canonical_obabel_seed1103_ex32

>  <source_seed>  (2)
1103

>  <vina_pose_rank>  (2)
2

>  <vina_affinity_kcal_mol>  (2)
-9.1059999999999999

>  <vina_rmsd_to_crystal_angstrom>  (2)
1.8498000000000001

$$$$
CHRNA7_encenicline__canonical_obabel_seed1103_ex32__pose03
     RDKit          3D

 38 41  0  0  0  0  0  0  0  0999 V2000
  142.7370  140.4630   91.2180 O   0  0  0  0  0  0  0  0  0  0  0  0
  142.4820  139.3500   90.9050 C   0  0  0  0  0  0  0  0  0  0  0  0
  141.2120  139.0520   90.2730 N   0  0  0  0  0  0  0  0  0  0  0  0
  140.2460  140.1470   90.0290 C   0  0  1  0  0  0  0  0  0  0  0  0
  140.7420  141.0380   88.8730 C   0  0  0  0  0  0  0  0  0  0  0  0
  139.8100  141.0820   87.8330 N   0  0  0  0  0  0  0  0  0  0  0  0
  138.6000  141.5540   88.2930 C   0  0  0  0  0  0  0  0  0  0  0  0
  138.0490  140.6810   89.3810 C   0  0  0  0  0  0  0  0  0  0  0  0
  138.9470  139.5940   89.6540 C   0  0  0  0  0  0  0  0  0  0  0  0
  139.1160  138.8160   88.4300 C   0  0  0  0  0  0  0  0  0  0  0  0
  139.6320  139.7830   87.2970 C   0  0  0  0  0  0  0  0  0  0  0  0
  143.5020  138.2360   91.1700 C   0  0  0  0  0  0  0  0  0  0  0  0
  143.2170  136.9210   91.3170 C   0  0  0  0  0  0  0  0  0  0  0  0
  144.2830  135.9910   91.5590 C   0  0  0  0  0  0  0  0  0  0  0  0
  144.1630  134.6370   91.7280 C   0  0  0  0  0  0  0  0  0  0  0  0
  145.2980  133.8590   91.9590 C   0  0  0  0  0  0  0  0  0  0  0  0
  146.5640  134.4640   92.0190 C   0  0  0  0  0  0  0  0  0  0  0  0
  146.6940  135.8460   91.8470 C   0  0  0  0  0  0  0  0  0  0  0  0
  148.3040  136.6080   91.9220 Cl  0  0  0  0  0  0  0  0  0  0  0  0
  145.5770  136.6150   91.6190 C   0  0  0  0  0  0  0  0  0  0  0  0
  145.2280  138.3770   91.3420 S   0  0  0  0  0  0  0  0  0  0  0  0
  140.9940  138.1300   90.0080 H   0  0  0  0  0  0  0  0  0  0  0  0
  140.1528  140.7390   90.9514 H   0  0  0  0  0  0  0  0  0  0  0  0
  140.9061  142.0579   89.2511 H   0  0  0  0  0  0  0  0  0  0  0  0
  141.6789  140.6133   88.4833 H   0  0  0  0  0  0  0  0  0  0  0  0
  138.7393  142.5716   88.6869 H   0  0  0  0  0  0  0  0  0  0  0  0
  137.8874  141.5535   87.4550 H   0  0  0  0  0  0  0  0  0  0  0  0
  137.9167  141.2799   90.2941 H   0  0  0  0  0  0  0  0  0  0  0  0
  137.0819  140.2713   89.0542 H   0  0  0  0  0  0  0  0  0  0  0  0
  138.5493  138.9627   90.4623 H   0  0  0  0  0  0  0  0  0  0  0  0
  139.8499  138.0139   88.5973 H   0  0  0  0  0  0  0  0  0  0  0  0
  138.1589  138.3618   88.1341 H   0  0  0  0  0  0  0  0  0  0  0  0
  140.5913  139.4123   86.9067 H   0  0  0  0  0  0  0  0  0  0  0  0
  138.8951  139.8197   86.4811 H   0  0  0  0  0  0  0  0  0  0  0  0
  142.1772  136.5681   91.2516 H   0  0  0  0  0  0  0  0  0  0  0  0
  143.1715  134.1628   91.6816 H   0  0  0  0  0  0  0  0  0  0  0  0
  145.2012  132.7716   92.0941 H   0  0  0  0  0  0  0  0  0  0  0  0
  147.4571  133.8484   92.2020 H   0  0  0  0  0  0  0  0  0  0  0  0
  1  2  2  0
  2  3  1  0
  3  4  1  0
  4  5  1  0
  5  6  1  0
  6  7  1  0
  7  8  1  0
  8  9  1  0
  9 10  1  0
 10 11  1  0
  2 12  1  0
 12 13  2  0
 13 14  1  0
 14 15  2  0
 15 16  1  0
 16 17  2  0
 17 18  1  0
 18 19  1  0
 18 20  2  0
 20 21  1  0
  9  4  1  0
 21 12  1  0
 11  6  1  0
 20 14  1  0
  3 22  1  0
  4 23  1  1
  5 24  1  0
  5 25  1  0
  7 26  1  0
  7 27  1  0
  8 28  1  0
  8 29  1  0
  9 30  1  0
 10 31  1  0
 10 32  1  0
 11 33  1  0
 11 34  1  0
 13 35  1  0
 15 36  1  0
 16 37  1  0
 17 38  1  0
M  END
>  <meeko>  (3)
{"is_sidechain": false}

>  <source_group>  (3)
CHRNA7 canonical

>  <source_system>  (3)
CHRNA7_encenicline

>  <source_run>  (3)
canonical_obabel_seed1103_ex32

>  <source_seed>  (3)
1103

>  <vina_pose_rank>  (3)
3

>  <vina_affinity_kcal_mol>  (3)
-9.0909999999999993

>  <vina_rmsd_to_crystal_angstrom>  (3)
1.0212000000000001

$$$$
CHRNA7_encenicline__canonical_obabel_seed1103_ex32__pose04
     RDKit          3D

 38 41  0  0  0  0  0  0  0  0999 V2000
  142.8180  140.4770   91.7660 O   0  0  0  0  0  0  0  0  0  0  0  0
  142.7740  139.5040   91.0920 C   0  0  0  0  0  0  0  0  0  0  0  0
  141.6010  139.2410   90.2810 N   0  0  0  0  0  0  0  0  0  0  0  0
  140.4690  140.1950   90.3080 C   0  0  1  0  0  0  0  0  0  0  0  0
  140.6410  141.2460   89.1930 C   0  0  0  0  0  0  0  0  0  0  0  0
  139.5510  141.2380   88.3180 N   0  0  0  0  0  0  0  0  0  0  0  0
  138.3820  141.4820   89.0050 C   0  0  0  0  0  0  0  0  0  0  0  0
  138.1430  140.4460   90.0640 C   0  0  0  0  0  0  0  0  0  0  0  0
  139.2130  139.4870   90.0770 C   0  0  0  0  0  0  0  0  0  0  0  0
  139.2780  138.8510   88.7640 C   0  0  0  0  0  0  0  0  0  0  0  0
  139.4630  139.9780   87.6780 C   0  0  0  0  0  0  0  0  0  0  0  0
  143.9600  138.5340   91.0840 C   0  0  0  0  0  0  0  0  0  0  0  0
  145.2270  138.8360   90.7160 C   0  0  0  0  0  0  0  0  0  0  0  0
  146.2370  137.8180   90.7630 C   0  0  0  0  0  0  0  0  0  0  0  0
  147.5580  137.9610   90.4280 C   0  0  0  0  0  0  0  0  0  0  0  0
  148.4250  136.8720   90.5240 C   0  0  0  0  0  0  0  0  0  0  0  0
  147.9440  135.6270   90.9650 C   0  0  0  0  0  0  0  0  0  0  0  0
  146.5970  135.4750   91.3090 C   0  0  0  0  0  0  0  0  0  0  0  0
  145.9930  133.8940   91.8700 Cl  0  0  0  0  0  0  0  0  0  0  0  0
  145.7410  136.5460   91.2150 C   0  0  0  0  0  0  0  0  0  0  0  0
  143.9770  136.8520   91.5310 S   0  0  0  0  0  0  0  0  0  0  0  0
  141.5580  138.4360   89.7170 H   0  0  0  0  0  0  0  0  0  0  0  0
  140.4515  140.6849   91.2927 H   0  0  0  0  0  0  0  0  0  0  0  0
  140.7270  142.2429   89.6499 H   0  0  0  0  0  0  0  0  0  0  0  0
  141.5484  141.0017   88.6212 H   0  0  0  0  0  0  0  0  0  0  0  0
  138.4463  142.4718   89.4806 H   0  0  0  0  0  0  0  0  0  0  0  0
  137.5465  141.4459   88.2904 H   0  0  0  0  0  0  0  0  0  0  0  0
  138.0854  140.9382   91.0461 H   0  0  0  0  0  0  0  0  0  0  0  0
  137.1991  139.9246   89.8466 H   0  0  0  0  0  0  0  0  0  0  0  0
  139.0453  138.7359   90.8629 H   0  0  0  0  0  0  0  0  0  0  0  0
  140.1304  138.1566   88.7286 H   0  0  0  0  0  0  0  0  0  0  0  0
  138.3547  138.2854   88.5703 H   0  0  0  0  0  0  0  0  0  0  0  0
  140.3850  139.7907   87.1081 H   0  0  0  0  0  0  0  0  0  0  0  0
  138.6022  139.9731   86.9931 H   0  0  0  0  0  0  0  0  0  0  0  0
  145.4803  139.8535   90.3836 H   0  0  0  0  0  0  0  0  0  0  0  0
  147.9352  138.9351   90.0831 H   0  0  0  0  0  0  0  0  0  0  0  0
  149.4852  136.9878   90.2545 H   0  0  0  0  0  0  0  0  0  0  0  0
  148.6291  134.7697   91.0398 H   0  0  0  0  0  0  0  0  0  0  0  0
  1  2  2  0
  2  3  1  0
  3  4  1  0
  4  5  1  0
  5  6  1  0
  6  7  1  0
  7  8  1  0
  8  9  1  0
  9 10  1  0
 10 11  1  0
  2 12  1  0
 12 13  2  0
 13 14  1  0
 14 15  2  0
 15 16  1  0
 16 17  2  0
 17 18  1  0
 18 19  1  0
 18 20  2  0
 20 21  1  0
  9  4  1  0
 21 12  1  0
 11  6  1  0
 20 14  1  0
  3 22  1  0
  4 23  1  1
  5 24  1  0
  5 25  1  0
  7 26  1  0
  7 27  1  0
  8 28  1  0
  8 29  1  0
  9 30  1  0
 10 31  1  0
 10 32  1  0
 11 33  1  0
 11 34  1  0
 13 35  1  0
 15 36  1  0
 16 37  1  0
 17 38  1  0
M  END
>  <meeko>  (4)
{"is_sidechain": false}

>  <source_group>  (4)
CHRNA7 canonical

>  <source_system>  (4)
CHRNA7_encenicline

>  <source_run>  (4)
canonical_obabel_seed1103_ex32

>  <source_seed>  (4)
1103

>  <vina_pose_rank>  (4)
4

>  <vina_affinity_kcal_mol>  (4)
-8.5630000000000006

>  <vina_rmsd_to_crystal_angstrom>  (4)
2.1661999999999999

$$$$
CHRNA7_encenicline__canonical_obabel_seed1103_ex32__pose05
     RDKit          3D

 38 41  0  0  0  0  0  0  0  0999 V2000
  140.1300  136.5990   90.2940 O   0  0  0  0  0  0  0  0  0  0  0  0
  140.9750  137.4140   90.4530 C   0  0  0  0  0  0  0  0  0  0  0  0
  140.6650  138.8180   90.2700 N   0  0  0  0  0  0  0  0  0  0  0  0
  139.2930  139.2170   89.8820 C   0  0  1  0  0  0  0  0  0  0  0  0
  138.8160  140.3880   90.7630 C   0  0  0  0  0  0  0  0  0  0  0  0
  138.4830  141.5020   89.9880 N   0  0  0  0  0  0  0  0  0  0  0  0
  137.4980  141.1770   89.0810 C   0  0  0  0  0  0  0  0  0  0  0  0
  137.9420  140.0790   88.1600 C   0  0  0  0  0  0  0  0  0  0  0  0
  139.2750  139.6570   88.4900 C   0  0  0  0  0  0  0  0  0  0  0  0
  140.1670  140.8060   88.3600 C   0  0  0  0  0  0  0  0  0  0  0  0
  139.6290  141.9580   89.2910 C   0  0  0  0  0  0  0  0  0  0  0  0
  142.3870  136.9730   90.8560 C   0  0  0  0  0  0  0  0  0  0  0  0
  142.7710  135.7060   91.1320 C   0  0  0  0  0  0  0  0  0  0  0  0
  144.1350  135.4450   91.4940 C   0  0  0  0  0  0  0  0  0  0  0  0
  144.6810  134.2260   91.7990 C   0  0  0  0  0  0  0  0  0  0  0  0
  146.0320  134.1310   92.1360 C   0  0  0  0  0  0  0  0  0  0  0  0
  146.8330  135.2850   92.1630 C   0  0  0  0  0  0  0  0  0  0  0  0
  146.2820  136.5320   91.8510 C   0  0  0  0  0  0  0  0  0  0  0  0
  147.3040  137.9930   91.8840 Cl  0  0  0  0  0  0  0  0  0  0  0  0
  144.9520  136.6290   91.5190 C   0  0  0  0  0  0  0  0  0  0  0  0
  143.8060  137.9610   91.0530 S   0  0  0  0  0  0  0  0  0  0  0  0
  141.3610  139.5020   90.4030 H   0  0  0  0  0  0  0  0  0  0  0  0
  138.6300  138.3491   90.0132 H   0  0  0  0  0  0  0  0  0  0  0  0
  137.9306  140.0703   91.3332 H   0  0  0  0  0  0  0  0  0  0  0  0
  139.6349  140.6687   91.4416 H   0  0  0  0  0  0  0  0  0  0  0  0
  136.6032  140.8452   89.6281 H   0  0  0  0  0  0  0  0  0  0  0  0
  137.2774  142.0685   88.4755 H   0  0  0  0  0  0  0  0  0  0  0  0
  137.2565  139.2243   88.2581 H   0  0  0  0  0  0  0  0  0  0  0  0
  137.9323  140.4546   87.1262 H   0  0  0  0  0  0  0  0  0  0  0  0
  139.5942  138.8409   87.8252 H   0  0  0  0  0  0  0  0  0  0  0  0
  141.1846  140.5236   88.6679 H   0  0  0  0  0  0  0  0  0  0  0  0
  140.1966  141.1464   87.3144 H   0  0  0  0  0  0  0  0  0  0  0  0
  140.4092  142.2413   90.0128 H   0  0  0  0  0  0  0  0  0  0  0  0
  139.3633  142.8321   88.6784 H   0  0  0  0  0  0  0  0  0  0  0  0
  142.0439  134.8823   91.0795 H   0  0  0  0  0  0  0  0  0  0  0  0
  144.0545  133.3221   91.7783 H   0  0  0  0  0  0  0  0  0  0  0  0
  146.4700  133.1520   92.3806 H   0  0  0  0  0  0  0  0  0  0  0  0
  147.8972  135.2074   92.4305 H   0  0  0  0  0  0  0  0  0  0  0  0
  1  2  2  0
  2  3  1  0
  3  4  1  0
  4  5  1  0
  5  6  1  0
  6  7  1  0
  7  8  1  0
  8  9  1  0
  9 10  1  0
 10 11  1  0
  2 12  1  0
 12 13  2  0
 13 14  1  0
 14 15  2  0
 15 16  1  0
 16 17  2  0
 17 18  1  0
 18 19  1  0
 18 20  2  0
 20 21  1  0
  9  4  1  0
 21 12  1  0
 11  6  1  0
 20 14  1  0
  3 22  1  0
  4 23  1  6
  5 24  1  0
  5 25  1  0
  7 26  1  0
  7 27  1  0
  8 28  1  0
  8 29  1  0
  9 30  1  0
 10 31  1  0
 10 32  1  0
 11 33  1  0
 11 34  1  0
 13 35  1  0
 15 36  1  0
 16 37  1  0
 17 38  1  0
M  END
>  <meeko>  (5)
{"is_sidechain": false}

>  <source_group>  (5)
CHRNA7 canonical

>  <source_system>  (5)
CHRNA7_encenicline

>  <source_run>  (5)
canonical_obabel_seed1103_ex32

>  <source_seed>  (5)
1103

>  <vina_pose_rank>  (5)
5

>  <vina_affinity_kcal_mol>  (5)
-7.9589999999999996

>  <vina_rmsd_to_crystal_angstrom>  (5)
2.2938999999999998

$$$$
CHRNA7_encenicline__canonical_obabel_seed1103_ex32__pose06
     RDKit          3D

 38 41  0  0  0  0  0  0  0  0999 V2000
  145.6960  138.7600   93.0790 O   0  0  0  0  0  0  0  0  0  0  0  0
  145.4560  138.3880   91.9810 C   0  0  0  0  0  0  0  0  0  0  0  0
  146.4920  137.7450   91.1950 N   0  0  0  0  0  0  0  0  0  0  0  0
  147.8410  137.5640   91.7780 C   0  0  1  0  0  0  0  0  0  0  0  0
  148.0830  136.0740   92.0890 C   0  0  0  0  0  0  0  0  0  0  0  0
  149.2040  135.5900   91.4080 N   0  0  0  0  0  0  0  0  0  0  0  0
  150.3220  136.3200   91.7470 C   0  0  0  0  0  0  0  0  0  0  0  0
  150.1530  137.7710   91.4040 C   0  0  0  0  0  0  0  0  0  0  0  0
  148.8590  138.0020   90.8270 C   0  0  0  0  0  0  0  0  0  0  0  0
  148.7400  137.1900   89.6190 C   0  0  0  0  0  0  0  0  0  0  0  0
  148.9890  135.6830   90.0110 C   0  0  0  0  0  0  0  0  0  0  0  0
  144.0510  138.5880   91.4030 C   0  0  0  0  0  0  0  0  0  0  0  0
  143.1250  137.6180   91.2180 C   0  0  0  0  0  0  0  0  0  0  0  0
  141.8450  137.9600   90.6660 C   0  0  0  0  0  0  0  0  0  0  0  0
  140.8060  137.1010   90.4200 C   0  0  0  0  0  0  0  0  0  0  0  0
  139.6160  137.5840   89.8760 C   0  0  0  0  0  0  0  0  0  0  0  0
  139.4820  138.9510   89.5790 C   0  0  0  0  0  0  0  0  0  0  0  0
  140.5390  139.8330   89.8290 C   0  0  0  0  0  0  0  0  0  0  0  0
  140.3620  141.5670   89.4530 Cl  0  0  0  0  0  0  0  0  0  0  0  0
  141.7120  139.3600   90.3650 C   0  0  0  0  0  0  0  0  0  0  0  0
  143.3140  140.0670   90.8560 S   0  0  0  0  0  0  0  0  0  0  0  0
  146.2990  137.4310   90.2820 H   0  0  0  0  0  0  0  0  0  0  0  0
  147.9033  138.1598   92.7005 H   0  0  0  0  0  0  0  0  0  0  0  0
  148.2415  135.9546   93.1710 H   0  0  0  0  0  0  0  0  0  0  0  0
  147.2025  135.5025   91.7601 H   0  0  0  0  0  0  0  0  0  0  0  0
  150.4964  136.2260   92.8290 H   0  0  0  0  0  0  0  0  0  0  0  0
  151.1777  135.9271   91.1782 H   0  0  0  0  0  0  0  0  0  0  0  0
  150.2548  138.3737   92.3185 H   0  0  0  0  0  0  0  0  0  0  0  0
  150.9249  138.0572   90.6745 H   0  0  0  0  0  0  0  0  0  0  0  0
  148.7302  139.0684   90.5900 H   0  0  0  0  0  0  0  0  0  0  0  0
  147.7321  137.3022   89.1929 H   0  0  0  0  0  0  0  0  0  0  0  0
  149.4770  137.5141   88.8695 H   0  0  0  0  0  0  0  0  0  0  0  0
  148.1105  135.0817   89.7340 H   0  0  0  0  0  0  0  0  0  0  0  0
  149.8735  135.3056   89.4770 H   0  0  0  0  0  0  0  0  0  0  0  0
  143.3517  136.5762   91.4885 H   0  0  0  0  0  0  0  0  0  0  0  0
  140.9105  136.0307   90.6515 H   0  0  0  0  0  0  0  0  0  0  0  0
  138.7818  136.8945   89.6793 H   0  0  0  0  0  0  0  0  0  0  0  0
  138.5429  139.3289   89.1485 H   0  0  0  0  0  0  0  0  0  0  0  0
  1  2  2  0
  2  3  1  0
  3  4  1  0
  4  5  1  0
  5  6  1  0
  6  7  1  0
  7  8  1  0
  8  9  1  0
  9 10  1  0
 10 11  1  0
  2 12  1  0
 12 13  2  0
 13 14  1  0
 14 15  2  0
 15 16  1  0
 16 17  2  0
 17 18  1  0
 18 19  1  0
 18 20  2  0
 20 21  1  0
  9  4  1  0
 21 12  1  0
 11  6  1  0
 20 14  1  0
  3 22  1  0
  4 23  1  1
  5 24  1  0
  5 25  1  0
  7 26  1  0
  7 27  1  0
  8 28  1  0
  8 29  1  0
  9 30  1  0
 10 31  1  0
 10 32  1  0
 11 33  1  0
 11 34  1  0
 13 35  1  0
 15 36  1  0
 16 37  1  0
 17 38  1  0
M  END
>  <meeko>  (6)
{"is_sidechain": false}

>  <source_group>  (6)
CHRNA7 canonical

>  <source_system>  (6)
CHRNA7_encenicline

>  <source_run>  (6)
canonical_obabel_seed1103_ex32

>  <source_seed>  (6)
1103

>  <vina_pose_rank>  (6)
6

>  <vina_affinity_kcal_mol>  (6)
-7.6200000000000001

>  <vina_rmsd_to_crystal_angstrom>  (6)
7.9786000000000001

$$$$
CHRNA7_encenicline__canonical_obabel_seed1103_ex32__pose07
     RDKit          3D

 38 41  0  0  0  0  0  0  0  0999 V2000
  146.1740  138.7600   92.9390 O   0  0  0  0  0  0  0  0  0  0  0  0
  145.8830  138.3270   91.8760 C   0  0  0  0  0  0  0  0  0  0  0  0
  146.9130  137.7890   91.0100 N   0  0  0  0  0  0  0  0  0  0  0  0
  148.3220  137.7900   91.4670 C   0  0  1  0  0  0  0  0  0  0  0  0
  148.7010  136.3970   92.0070 C   0  0  0  0  0  0  0  0  0  0  0  0
  149.7830  135.8590   91.3050 N   0  0  0  0  0  0  0  0  0  0  0  0
  150.8730  136.6980   91.3870 C   0  0  0  0  0  0  0  0  0  0  0  0
  150.5670  138.0510   90.8160 C   0  0  0  0  0  0  0  0  0  0  0  0
  149.2090  138.1030   90.3500 C   0  0  0  0  0  0  0  0  0  0  0  0
  149.0350  137.0790   89.3230 C   0  0  0  0  0  0  0  0  0  0  0  0
  149.4290  135.6850   89.9440 C   0  0  0  0  0  0  0  0  0  0  0  0
  144.4160  138.3380   91.4290 C   0  0  0  0  0  0  0  0  0  0  0  0
  143.7010  139.4350   91.0880 C   0  0  0  0  0  0  0  0  0  0  0  0
  142.3310  139.2880   90.6860 C   0  0  0  0  0  0  0  0  0  0  0  0
  141.4770  140.2910   90.3110 C   0  0  0  0  0  0  0  0  0  0  0  0
  140.1650  139.9910   89.9450 C   0  0  0  0  0  0  0  0  0  0  0  0
  139.7180  138.6580   89.9620 C   0  0  0  0  0  0  0  0  0  0  0  0
  140.5860  137.6290   90.3420 C   0  0  0  0  0  0  0  0  0  0  0  0
  140.0140  135.9400   90.3580 Cl  0  0  0  0  0  0  0  0  0  0  0  0
  141.8790  137.9230   90.7030 C   0  0  0  0  0  0  0  0  0  0  0  0
  143.3360  136.9850   91.2530 S   0  0  0  0  0  0  0  0  0  0  0  0
  146.6790  137.4250   90.1260 H   0  0  0  0  0  0  0  0  0  0  0  0
  148.4292  138.5458   92.2590 H   0  0  0  0  0  0  0  0  0  0  0  0
  148.9713  136.4857   93.0696 H   0  0  0  0  0  0  0  0  0  0  0  0
  147.8370  135.7280   91.8806 H   0  0  0  0  0  0  0  0  0  0  0  0
  151.1584  136.8116   92.4432 H   0  0  0  0  0  0  0  0  0  0  0  0
  151.6951  136.2550   90.8057 H   0  0  0  0  0  0  0  0  0  0  0  0
  150.7124  138.8142   91.5947 H   0  0  0  0  0  0  0  0  0  0  0  0
  151.2423  138.2416   89.9688 H   0  0  0  0  0  0  0  0  0  0  0  0
  148.9799  139.0999   89.9454 H   0  0  0  0  0  0  0  0  0  0  0  0
  147.9856  137.0565   88.9939 H   0  0  0  0  0  0  0  0  0  0  0  0
  149.6719  137.3010   88.4541 H   0  0  0  0  0  0  0  0  0  0  0  0
  148.5741  134.9965   89.8723 H   0  0  0  0  0  0  0  0  0  0  0  0
  150.2836  135.2657   89.3929 H   0  0  0  0  0  0  0  0  0  0  0  0
  144.1660  140.4314   91.1186 H   0  0  0  0  0  0  0  0  0  0  0  0
  141.8262  141.3340   90.2985 H   0  0  0  0  0  0  0  0  0  0  0  0
  139.4801  140.7971   89.6431 H   0  0  0  0  0  0  0  0  0  0  0  0
  138.6822  138.4235   89.6755 H   0  0  0  0  0  0  0  0  0  0  0  0
  1  2  2  0
  2  3  1  0
  3  4  1  0
  4  5  1  0
  5  6  1  0
  6  7  1  0
  7  8  1  0
  8  9  1  0
  9 10  1  0
 10 11  1  0
  2 12  1  0
 12 13  2  0
 13 14  1  0
 14 15  2  0
 15 16  1  0
 16 17  2  0
 17 18  1  0
 18 19  1  0
 18 20  2  0
 20 21  1  0
  9  4  1  0
 21 12  1  0
 11  6  1  0
 20 14  1  0
  3 22  1  0
  4 23  1  1
  5 24  1  0
  5 25  1  0
  7 26  1  0
  7 27  1  0
  8 28  1  0
  8 29  1  0
  9 30  1  0
 10 31  1  0
 10 32  1  0
 11 33  1  0
 11 34  1  0
 13 35  1  0
 15 36  1  0
 16 37  1  0
 17 38  1  0
M  END
>  <meeko>  (7)
{"is_sidechain": false}

>  <source_group>  (7)
CHRNA7 canonical

>  <source_system>  (7)
CHRNA7_encenicline

>  <source_run>  (7)
canonical_obabel_seed1103_ex32

>  <source_seed>  (7)
1103

>  <vina_pose_rank>  (7)
7

>  <vina_affinity_kcal_mol>  (7)
-7.5149999999999997

>  <vina_rmsd_to_crystal_angstrom>  (7)
8.1289999999999996

$$$$
CHRNA7_encenicline__canonical_obabel_seed1103_ex32__pose08
     RDKit          3D

 38 41  0  0  0  0  0  0  0  0999 V2000
  144.8610  140.7120   91.1770 O   0  0  0  0  0  0  0  0  0  0  0  0
  144.2570  139.7610   90.8120 C   0  0  0  0  0  0  0  0  0  0  0  0
  144.8670  138.4480   90.8830 N   0  0  0  0  0  0  0  0  0  0  0  0
  146.2440  138.3120   91.4100 C   0  0  1  0  0  0  0  0  0  0  0  0
  146.3220  137.1120   92.3740 C   0  0  0  0  0  0  0  0  0  0  0  0
  147.2680  136.1780   91.9450 N   0  0  0  0  0  0  0  0  0  0  0  0
  148.5090  136.7660   91.8390 C   0  0  0  0  0  0  0  0  0  0  0  0
  148.4940  137.9040   90.8620 C   0  0  0  0  0  0  0  0  0  0  0  0
  147.1780  138.0760   90.3130 C   0  0  0  0  0  0  0  0  0  0  0  0
  146.7940  136.8380   89.6400 C   0  0  0  0  0  0  0  0  0  0  0  0
  146.8860  135.6600   90.6830 C   0  0  0  0  0  0  0  0  0  0  0  0
  142.8330  139.9310   90.2710 C   0  0  0  0  0  0  0  0  0  0  0  0
  141.7440  140.2690   91.0000 C   0  0  0  0  0  0  0  0  0  0  0  0
  140.4700  140.3930   90.3510 C   0  0  0  0  0  0  0  0  0  0  0  0
  139.2810  140.7280   90.9420 C   0  0  0  0  0  0  0  0  0  0  0  0
  138.1180  140.8070   90.1760 C   0  0  0  0  0  0  0  0  0  0  0  0
  138.1660  140.5440   88.7960 C   0  0  0  0  0  0  0  0  0  0  0  0
  139.3770  140.2030   88.1860 C   0  0  0  0  0  0  0  0  0  0  0  0
  139.4330  139.8720   86.4350 Cl  0  0  0  0  0  0  0  0  0  0  0  0
  140.5240  140.1240   88.9390 C   0  0  0  0  0  0  0  0  0  0  0  0
  142.2740  139.7370   88.6340 S   0  0  0  0  0  0  0  0  0  0  0  0
  144.3700  137.6530   90.5830 H   0  0  0  0  0  0  0  0  0  0  0  0
  146.5064  139.2409   91.9376 H   0  0  0  0  0  0  0  0  0  0  0  0
  146.6030  137.4734   93.3742 H   0  0  0  0  0  0  0  0  0  0  0  0
  145.3373  136.6225   92.4000 H   0  0  0  0  0  0  0  0  0  0  0  0
  148.8105  137.1459   92.8263 H   0  0  0  0  0  0  0  0  0  0  0  0
  149.2209  136.0092   91.4778 H   0  0  0  0  0  0  0  0  0  0  0  0
  148.7952  138.8280   91.3773 H   0  0  0  0  0  0  0  0  0  0  0  0
  149.1952  137.6811   90.0442 H   0  0  0  0  0  0  0  0  0  0  0  0
  147.1637  138.9203   89.6080 H   0  0  0  0  0  0  0  0  0  0  0  0
  145.7636  136.9228   89.2643 H   0  0  0  0  0  0  0  0  0  0  0  0
  147.4642  136.6449   88.7894 H   0  0  0  0  0  0  0  0  0  0  0  0
  145.9055  135.1688   90.7694 H   0  0  0  0  0  0  0  0  0  0  0  0
  147.6335  134.9273   90.3449 H   0  0  0  0  0  0  0  0  0  0  0  0
  141.8347  140.4473   92.0817 H   0  0  0  0  0  0  0  0  0  0  0  0
  139.2431  140.9349   92.0217 H   0  0  0  0  0  0  0  0  0  0  0  0
  137.1632  141.0751   90.6519 H   0  0  0  0  0  0  0  0  0  0  0  0
  137.2476  140.6067   88.1939 H   0  0  0  0  0  0  0  0  0  0  0  0
  1  2  2  0
  2  3  1  0
  3  4  1  0
  4  5  1  0
  5  6  1  0
  6  7  1  0
  7  8  1  0
  8  9  1  0
  9 10  1  0
 10 11  1  0
  2 12  1  0
 12 13  2  0
 13 14  1  0
 14 15  2  0
 15 16  1  0
 16 17  2  0
 17 18  1  0
 18 19  1  0
 18 20  2  0
 20 21  1  0
  9  4  1  0
 21 12  1  0
 11  6  1  0
 20 14  1  0
  3 22  1  0
  4 23  1  1
  5 24  1  0
  5 25  1  0
  7 26  1  0
  7 27  1  0
  8 28  1  0
  8 29  1  0
  9 30  1  0
 10 31  1  0
 10 32  1  0
 11 33  1  0
 11 34  1  0
 13 35  1  0
 15 36  1  0
 16 37  1  0
 17 38  1  0
M  END
>  <meeko>  (8)
{"is_sidechain": false}

>  <source_group>  (8)
CHRNA7 canonical

>  <source_system>  (8)
CHRNA7_encenicline

>  <source_run>  (8)
canonical_obabel_seed1103_ex32

>  <source_seed>  (8)
1103

>  <vina_pose_rank>  (8)
8

>  <vina_affinity_kcal_mol>  (8)
-7.3780000000000001

>  <vina_rmsd_to_crystal_angstrom>  (8)
7.8217999999999996

$$$$
CHRNA7_encenicline__canonical_obabel_seed1103_ex32__pose09
     RDKit          3D

 38 41  0  0  0  0  0  0  0  0999 V2000
  146.2720  135.8080   92.5130 O   0  0  0  0  0  0  0  0  0  0  0  0
  146.1040  136.6490   91.6960 C   0  0  0  0  0  0  0  0  0  0  0  0
  147.2480  137.2750   91.0620 N   0  0  0  0  0  0  0  0  0  0  0  0
  148.6140  136.8560   91.4470 C   0  0  1  0  0  0  0  0  0  0  0  0
  149.0860  135.7020   90.5400 C   0  0  0  0  0  0  0  0  0  0  0  0
  150.2600  136.0390   89.8620 N   0  0  0  0  0  0  0  0  0  0  0  0
  151.2570  136.3580   90.7590 C   0  0  0  0  0  0  0  0  0  0  0  0
  150.8640  137.5180   91.6240 C   0  0  0  0  0  0  0  0  0  0  0  0
  149.5430  137.9710   91.2870 C   0  0  0  0  0  0  0  0  0  0  0  0
  149.5390  138.3740   89.8830 C   0  0  0  0  0  0  0  0  0  0  0  0
  150.0200  137.1490   89.0160 C   0  0  0  0  0  0  0  0  0  0  0  0
  144.6780  137.0630   91.3160 C   0  0  0  0  0  0  0  0  0  0  0  0
  143.6240  136.2270   91.1670 C   0  0  0  0  0  0  0  0  0  0  0  0
  142.3430  136.7640   90.8090 C   0  0  0  0  0  0  0  0  0  0  0  0
  141.1840  136.0580   90.6220 C   0  0  0  0  0  0  0  0  0  0  0  0
  140.0090  136.7240   90.2720 C   0  0  0  0  0  0  0  0  0  0  0  0
  140.0140  138.1200   90.1110 C   0  0  0  0  0  0  0  0  0  0  0  0
  141.1930  138.8470   90.3000 C   0  0  0  0  0  0  0  0  0  0  0  0
  141.1930  140.6180   90.0960 Cl  0  0  0  0  0  0  0  0  0  0  0  0
  142.3520  138.1930   90.6450 C   0  0  0  0  0  0  0  0  0  0  0  0
  144.0740  138.6620   90.9910 S   0  0  0  0  0  0  0  0  0  0  0  0
  147.1170  137.9730   90.3800 H   0  0  0  0  0  0  0  0  0  0  0  0
  148.5929  136.5290   92.4971 H   0  0  0  0  0  0  0  0  0  0  0  0
  149.2724  134.8123   91.1594 H   0  0  0  0  0  0  0  0  0  0  0  0
  148.3007  135.5001   89.7967 H   0  0  0  0  0  0  0  0  0  0  0  0
  151.4554  135.4855   91.3988 H   0  0  0  0  0  0  0  0  0  0  0  0
  152.1566  136.6385   90.1915 H   0  0  0  0  0  0  0  0  0  0  0  0
  150.8817  137.2057   92.6786 H   0  0  0  0  0  0  0  0  0  0  0  0
  151.5752  138.3411   91.4607 H   0  0  0  0  0  0  0  0  0  0  0  0
  149.2494  138.8116   91.9329 H   0  0  0  0  0  0  0  0  0  0  0  0
  148.5219  138.6659   89.5826 H   0  0  0  0  0  0  0  0  0  0  0  0
  150.2107  139.2320   89.7328 H   0  0  0  0  0  0  0  0  0  0  0  0
  149.2418  136.8902   88.2829 H   0  0  0  0  0  0  0  0  0  0  0  0
  150.9471  137.4149   88.4870 H   0  0  0  0  0  0  0  0  0  0  0  0
  143.7487  135.1447   91.3192 H   0  0  0  0  0  0  0  0  0  0  0  0
  141.1797  134.9652   90.7479 H   0  0  0  0  0  0  0  0  0  0  0  0
  139.0788  136.1564   90.1221 H   0  0  0  0  0  0  0  0  0  0  0  0
  139.0864  138.6429   89.8351 H   0  0  0  0  0  0  0  0  0  0  0  0
  1  2  2  0
  2  3  1  0
  3  4  1  0
  4  5  1  0
  5  6  1  0
  6  7  1  0
  7  8  1  0
  8  9  1  0
  9 10  1  0
 10 11  1  0
  2 12  1  0
 12 13  2  0
 13 14  1  0
 14 15  2  0
 15 16  1  0
 16 17  2  0
 17 18  1  0
 18 19  1  0
 18 20  2  0
 20 21  1  0
  9  4  1  0
 21 12  1  0
 11  6  1  0
 20 14  1  0
  3 22  1  0
  4 23  1  1
  5 24  1  0
  5 25  1  0
  7 26  1  0
  7 27  1  0
  8 28  1  0
  8 29  1  0
  9 30  1  0
 10 31  1  0
 10 32  1  0
 11 33  1  0
 11 34  1  0
 13 35  1  0
 15 36  1  0
 16 37  1  0
 17 38  1  0
M  END
>  <meeko>  (9)
{"is_sidechain": false}

>  <source_group>  (9)
CHRNA7 canonical

>  <source_system>  (9)
CHRNA7_encenicline

>  <source_run>  (9)
canonical_obabel_seed1103_ex32

>  <source_seed>  (9)
1103

>  <vina_pose_rank>  (9)
9

>  <vina_affinity_kcal_mol>  (9)
-7.3490000000000002

>  <vina_rmsd_to_crystal_angstrom>  (9)
8.1334

$$$$
CHRNA7_encenicline__canonical_obabel_seed1103_ex32__pose10
     RDKit          3D

 38 41  0  0  0  0  0  0  0  0999 V2000
  140.1800  136.8730   90.3400 O   0  0  0  0  0  0  0  0  0  0  0  0
  141.0670  137.6520   90.2460 C   0  0  0  0  0  0  0  0  0  0  0  0
  140.8170  138.9630   89.6790 N   0  0  0  0  0  0  0  0  0  0  0  0
  139.4520  139.3090   89.2210 C   0  0  1  0  0  0  0  0  0  0  0  0
  138.5820  139.7220   90.4240 C   0  0  0  0  0  0  0  0  0  0  0  0
  138.0820  141.0170   90.2680 N   0  0  0  0  0  0  0  0  0  0  0  0
  137.3410  141.1080   89.1100 C   0  0  0  0  0  0  0  0  0  0  0  0
  138.1670  140.7730   87.9030 C   0  0  0  0  0  0  0  0  0  0  0  0
  139.5070  140.4340   88.2920 C   0  0  0  0  0  0  0  0  0  0  0  0
  140.0880  141.5790   88.9890 C   0  0  0  0  0  0  0  0  0  0  0  0
  139.1570  141.9380   90.2090 C   0  0  0  0  0  0  0  0  0  0  0  0
  142.4700  137.2670   90.7290 C   0  0  0  0  0  0  0  0  0  0  0  0
  143.4540  138.1300   91.0710 C   0  0  0  0  0  0  0  0  0  0  0  0
  144.7210  137.6180   91.5090 C   0  0  0  0  0  0  0  0  0  0  0  0
  145.8120  138.3540   91.8900 C   0  0  0  0  0  0  0  0  0  0  0  0
  146.9830  137.7100   92.2930 C   0  0  0  0  0  0  0  0  0  0  0  0
  147.0430  136.3060   92.3080 C   0  0  0  0  0  0  0  0  0  0  0  0
  145.9320  135.5490   91.9220 C   0  0  0  0  0  0  0  0  0  0  0  0
  146.0140  133.7680   91.9450 Cl  0  0  0  0  0  0  0  0  0  0  0  0
  144.7780  136.1810   91.5240 C   0  0  0  0  0  0  0  0  0  0  0  0
  143.1290  135.6710   90.9530 S   0  0  0  0  0  0  0  0  0  0  0  0
  141.5470  139.6170   89.6000 H   0  0  0  0  0  0  0  0  0  0  0  0
  139.0197  138.4279   88.7243 H   0  0  0  0  0  0  0  0  0  0  0  0
  137.7392  139.0209   90.5142 H   0  0  0  0  0  0  0  0  0  0  0  0
  139.2069  139.6978   91.3290 H   0  0  0  0  0  0  0  0  0  0  0  0
  136.4952  140.4073   89.1705 H   0  0  0  0  0  0  0  0  0  0  0  0
  136.9839  142.1435   89.0083 H   0  0  0  0  0  0  0  0  0  0  0  0
  137.7141  139.9179   87.3798 H   0  0  0  0  0  0  0  0  0  0  0  0
  138.1991  141.6488   87.2383 H   0  0  0  0  0  0  0  0  0  0  0  0
  140.1081  140.1726   87.4086 H   0  0  0  0  0  0  0  0  0  0  0  0
  141.0944  141.3226   89.3515 H   0  0  0  0  0  0  0  0  0  0  0  0
  140.1680  142.4381   88.3068 H   0  0  0  0  0  0  0  0  0  0  0  0
  139.7376  141.8846   91.1418 H   0  0  0  0  0  0  0  0  0  0  0  0
  138.7615  142.9565   90.0819 H   0  0  0  0  0  0  0  0  0  0  0  0
  143.2843  139.2153   91.0138 H   0  0  0  0  0  0  0  0  0  0  0  0
  145.7651  139.4529   91.8783 H   0  0  0  0  0  0  0  0  0  0  0  0
  147.8587  138.3013   92.5988 H   0  0  0  0  0  0  0  0  0  0  0  0
  147.9673  135.8005   92.6245 H   0  0  0  0  0  0  0  0  0  0  0  0
  1  2  2  0
  2  3  1  0
  3  4  1  0
  4  5  1  0
  5  6  1  0
  6  7  1  0
  7  8  1  0
  8  9  1  0
  9 10  1  0
 10 11  1  0
  2 12  1  0
 12 13  2  0
 13 14  1  0
 14 15  2  0
 15 16  1  0
 16 17  2  0
 17 18  1  0
 18 19  1  0
 18 20  2  0
 20 21  1  0
  9  4  1  0
 21 12  1  0
 11  6  1  0
 20 14  1  0
  3 22  1  0
  4 23  1  6
  5 24  1  0
  5 25  1  0
  7 26  1  0
  7 27  1  0
  8 28  1  0
  8 29  1  0
  9 30  1  0
 10 31  1  0
 10 32  1  0
 11 33  1  0
 11 34  1  0
 13 35  1  0
 15 36  1  0
 16 37  1  0
 17 38  1  0
M  END
>  <meeko>  (10)
{"is_sidechain": false}

>  <source_group>  (10)
CHRNA7 canonical

>  <source_system>  (10)
CHRNA7_encenicline

>  <source_run>  (10)
canonical_obabel_seed1103_ex32

>  <source_seed>  (10)
1103

>  <vina_pose_rank>  (10)
10

>  <vina_affinity_kcal_mol>  (10)
-7.2290000000000001

>  <vina_rmsd_to_crystal_angstrom>  (10)
2.7282000000000002

$$$$
CHRNA7_encenicline__canonical_obabel_seed1103_ex32__pose11
     RDKit          3D

 38 41  0  0  0  0  0  0  0  0999 V2000
  144.8760  140.8100   91.0160 O   0  0  0  0  0  0  0  0  0  0  0  0
  144.2460  139.8640   90.6820 C   0  0  0  0  0  0  0  0  0  0  0  0
  144.8500  138.5460   90.7190 N   0  0  0  0  0  0  0  0  0  0  0  0
  146.2520  138.4000   91.1720 C   0  0  1  0  0  0  0  0  0  0  0  0
  146.3160  137.4560   92.3880 C   0  0  0  0  0  0  0  0  0  0  0  0
  147.1420  136.3580   92.1340 N   0  0  0  0  0  0  0  0  0  0  0  0
  148.4130  136.7790   91.8080 C   0  0  0  0  0  0  0  0  0  0  0  0
  148.4050  137.6540   90.5900 C   0  0  0  0  0  0  0  0  0  0  0  0
  147.0640  137.8240   90.1040 C   0  0  0  0  0  0  0  0  0  0  0  0
  146.5230  136.5080   89.7740 C   0  0  0  0  0  0  0  0  0  0  0  0
  146.6110  135.6010   91.0600 C   0  0  0  0  0  0  0  0  0  0  0  0
  142.7960  140.0450   90.2190 C   0  0  0  0  0  0  0  0  0  0  0  0
  142.3890  140.2050   88.9390 C   0  0  0  0  0  0  0  0  0  0  0  0
  140.9900  140.3610   88.6570 C   0  0  0  0  0  0  0  0  0  0  0  0
  140.4190  140.5310   87.4240 C   0  0  0  0  0  0  0  0  0  0  0  0
  139.0350  140.6710   87.3080 C   0  0  0  0  0  0  0  0  0  0  0  0
  138.2280  140.6390   88.4580 C   0  0  0  0  0  0  0  0  0  0  0  0
  138.8050  140.4650   89.7200 C   0  0  0  0  0  0  0  0  0  0  0  0
  137.7740  140.4230   91.1740 Cl  0  0  0  0  0  0  0  0  0  0  0  0
  140.1670  140.3270   89.8360 C   0  0  0  0  0  0  0  0  0  0  0  0
  141.3540  140.0870   91.1920 S   0  0  0  0  0  0  0  0  0  0  0  0
  144.3320  137.7550   90.4470 H   0  0  0  0  0  0  0  0  0  0  0  0
  146.6344  139.3949   91.4438 H   0  0  0  0  0  0  0  0  0  0  0  0
  146.7119  138.0103   93.2518 H   0  0  0  0  0  0  0  0  0  0  0  0
  145.3008  137.0868   92.5954 H   0  0  0  0  0  0  0  0  0  0  0  0
  148.8297  137.3463   92.6533 H   0  0  0  0  0  0  0  0  0  0  0  0
  149.0265  135.8918   91.5924 H   0  0  0  0  0  0  0  0  0  0  0  0
  148.8245  138.6377   90.8477 H   0  0  0  0  0  0  0  0  0  0  0  0
  149.0112  137.1783   89.8051 H   0  0  0  0  0  0  0  0  0  0  0  0
  147.0566  138.4786   89.2200 H   0  0  0  0  0  0  0  0  0  0  0  0
  145.4737  136.6055   89.4585 H   0  0  0  0  0  0  0  0  0  0  0  0
  147.0977  136.0569   88.9517 H   0  0  0  0  0  0  0  0  0  0  0  0
  145.6057  135.2422   91.3256 H   0  0  0  0  0  0  0  0  0  0  0  0
  147.2651  134.7399   90.8585 H   0  0  0  0  0  0  0  0  0  0  0  0
  143.1241  140.2155   88.1207 H   0  0  0  0  0  0  0  0  0  0  0  0
  141.0514  140.5573   86.5243 H   0  0  0  0  0  0  0  0  0  0  0  0
  138.5765  140.8063   86.3173 H   0  0  0  0  0  0  0  0  0  0  0  0
  137.1377  140.7513   88.3652 H   0  0  0  0  0  0  0  0  0  0  0  0
  1  2  2  0
  2  3  1  0
  3  4  1  0
  4  5  1  0
  5  6  1  0
  6  7  1  0
  7  8  1  0
  8  9  1  0
  9 10  1  0
 10 11  1  0
  2 12  1  0
 12 13  2  0
 13 14  1  0
 14 15  2  0
 15 16  1  0
 16 17  2  0
 17 18  1  0
 18 19  1  0
 18 20  2  0
 20 21  1  0
  9  4  1  0
 21 12  1  0
 11  6  1  0
 20 14  1  0
  3 22  1  0
  4 23  1  1
  5 24  1  0
  5 25  1  0
  7 26  1  0
  7 27  1  0
  8 28  1  0
  8 29  1  0
  9 30  1  0
 10 31  1  0
 10 32  1  0
 11 33  1  0
 11 34  1  0
 13 35  1  0
 15 36  1  0
 16 37  1  0
 17 38  1  0
M  END
>  <meeko>  (11)
{"is_sidechain": false}

>  <source_group>  (11)
CHRNA7 canonical

>  <source_system>  (11)
CHRNA7_encenicline

>  <source_run>  (11)
canonical_obabel_seed1103_ex32

>  <source_seed>  (11)
1103

>  <vina_pose_rank>  (11)
11

>  <vina_affinity_kcal_mol>  (11)
-7.1820000000000004

>  <vina_rmsd_to_crystal_angstrom>  (11)
7.8872999999999998

$$$$
CHRNA7_encenicline__canonical_obabel_seed1103_ex32__pose12
     RDKit          3D

 38 41  0  0  0  0  0  0  0  0999 V2000
  147.7970  135.1740   92.5960 O   0  0  0  0  0  0  0  0  0  0  0  0
  147.7590  136.2340   92.0690 C   0  0  0  0  0  0  0  0  0  0  0  0
  148.9940  136.9290   91.7580 N   0  0  0  0  0  0  0  0  0  0  0  0
  150.2900  136.3020   92.1070 C   0  0  1  0  0  0  0  0  0  0  0  0
  150.7980  135.4530   90.9250 C   0  0  0  0  0  0  0  0  0  0  0  0
  152.0530  135.8880   90.4920 N   0  0  0  0  0  0  0  0  0  0  0  0
  152.9630  135.8320   91.5250 C   0  0  0  0  0  0  0  0  0  0  0  0
  152.5370  136.6940   92.6770 C   0  0  0  0  0  0  0  0  0  0  0  0
  151.2840  137.3340   92.3880 C   0  0  0  0  0  0  0  0  0  0  0  0
  151.4490  138.1520   91.1890 C   0  0  0  0  0  0  0  0  0  0  0  0
  151.9600  137.2220   90.0230 C   0  0  0  0  0  0  0  0  0  0  0  0
  146.4040  136.8590   91.7190 C   0  0  0  0  0  0  0  0  0  0  0  0
  146.1610  138.1800   91.5510 C   0  0  0  0  0  0  0  0  0  0  0  0
  144.8350  138.6170   91.2210 C   0  0  0  0  0  0  0  0  0  0  0  0
  144.4270  139.9090   91.0170 C   0  0  0  0  0  0  0  0  0  0  0  0
  143.0950  140.1790   90.7030 C   0  0  0  0  0  0  0  0  0  0  0  0
  142.1710  139.1260   90.5950 C   0  0  0  0  0  0  0  0  0  0  0  0
  142.5810  137.8050   90.8010 C   0  0  0  0  0  0  0  0  0  0  0  0
  141.4040  136.4730   90.6610 Cl  0  0  0  0  0  0  0  0  0  0  0  0
  143.8920  137.5360   91.1110 C   0  0  0  0  0  0  0  0  0  0  0  0
  144.8840  136.0530   91.4580 S   0  0  0  0  0  0  0  0  0  0  0  0
  148.9710  137.8090   91.3180 H   0  0  0  0  0  0  0  0  0  0  0  0
  150.1417  135.6680   92.9936 H   0  0  0  0  0  0  0  0  0  0  0  0
  150.8728  134.4029   91.2437 H   0  0  0  0  0  0  0  0  0  0  0  0
  150.0874  135.5563   90.0917 H   0  0  0  0  0  0  0  0  0  0  0  0
  153.0495  134.7910   91.8697 H   0  0  0  0  0  0  0  0  0  0  0  0
  153.9304  136.2022   91.1547 H   0  0  0  0  0  0  0  0  0  0  0  0
  152.4259  136.0691   93.5754 H   0  0  0  0  0  0  0  0  0  0  0  0
  153.3014  137.4668   92.8457 H   0  0  0  0  0  0  0  0  0  0  0  0
  150.9650  137.9544   93.2385 H   0  0  0  0  0  0  0  0  0  0  0  0
  150.4850  138.6025   90.9103 H   0  0  0  0  0  0  0  0  0  0  0  0
  152.1735  138.9582   91.3765 H   0  0  0  0  0  0  0  0  0  0  0  0
  151.2533  137.2668   89.1812 H   0  0  0  0  0  0  0  0  0  0  0  0
  152.9503  137.5636   89.6874 H   0  0  0  0  0  0  0  0  0  0  0  0
  146.9736  138.9124   91.6666 H   0  0  0  0  0  0  0  0  0  0  0  0
  145.1501  140.7336   91.1009 H   0  0  0  0  0  0  0  0  0  0  0  0
  142.7679  141.2165   90.5399 H   0  0  0  0  0  0  0  0  0  0  0  0
  141.1211  139.3416   90.3475 H   0  0  0  0  0  0  0  0  0  0  0  0
  1  2  2  0
  2  3  1  0
  3  4  1  0
  4  5  1  0
  5  6  1  0
  6  7  1  0
  7  8  1  0
  8  9  1  0
  9 10  1  0
 10 11  1  0
  2 12  1  0
 12 13  2  0
 13 14  1  0
 14 15  2  0
 15 16  1  0
 16 17  2  0
 17 18  1  0
 18 19  1  0
 18 20  2  0
 20 21  1  0
  9  4  1  0
 21 12  1  0
 11  6  1  0
 20 14  1  0
  3 22  1  0
  4 23  1  1
  5 24  1  0
  5 25  1  0
  7 26  1  0
  7 27  1  0
  8 28  1  0
  8 29  1  0
  9 30  1  0
 10 31  1  0
 10 32  1  0
 11 33  1  0
 11 34  1  0
 13 35  1  0
 15 36  1  0
 16 37  1  0
 17 38  1  0
M  END
>  <meeko>  (12)
{"is_sidechain": false}

>  <source_group>  (12)
CHRNA7 canonical

>  <source_system>  (12)
CHRNA7_encenicline

>  <source_run>  (12)
canonical_obabel_seed1103_ex32

>  <source_seed>  (12)
1103

>  <vina_pose_rank>  (12)
12

>  <vina_affinity_kcal_mol>  (12)
-6.9909999999999997

>  <vina_rmsd_to_crystal_angstrom>  (12)
9.2248000000000001

$$$$
