CHRNA7_encenicline__canonical_obabel_seed1103_ex32__pose01


 22 25  0  0  0  0  0  0  0  0999 V2000
  143.6450  140.7060   90.0180 O   0  0  0  0  0  0  0  0  0  0  0  0
  143.0930  139.6910   90.2800 C   0  0  0  0  0  0  0  0  0  0  0  0
  141.6480  139.6130   90.1930 N   0  0  0  0  0  0  0  0  0  0  0  0
  141.1830  138.7720   90.4060 H   0  0  0  0  0  0  0  0  0  0  0  0
  143.9160  138.4690   90.7040 C   0  0  0  0  0  0  0  0  0  0  0  0
  143.4230  137.2380   90.9750 C   0  0  0  0  0  0  0  0  0  0  0  0
  144.3210  136.1870   91.3600 C   0  0  0  0  0  0  0  0  0  0  0  0
  143.9840  134.8950   91.6630 C   0  0  0  0  0  0  0  0  0  0  0  0
  144.9740  133.9810   92.0240 C   0  0  0  0  0  0  0  0  0  0  0  0
  146.3190  134.3860   92.0770 C   0  0  0  0  0  0  0  0  0  0  0  0
  146.6700  135.7040   91.7670 C   0  0  0  0  0  0  0  0  0  0  0  0
  148.3780  136.2120   91.8340 Cl  0  0  0  0  0  0  0  0  0  0  0  0
  145.6960  136.6060   91.4120 C   0  0  0  0  0  0  0  0  0  0  0  0
  145.6370  138.3600   90.9370 S   0  0  0  0  0  0  0  0  0  0  0  0
  140.8780  140.8080   89.7800 C   0  0  0  0  0  0  0  0  0  0  0  0
  140.5220  140.7130   88.2830 C   0  0  0  0  0  0  0  0  0  0  0  0
  139.1390  140.7610   88.0870 N   0  0  0  0  0  0  0  0  0  0  0  0
  138.6210  141.9240   88.6120 C   0  0  0  0  0  0  0  0  0  0  0  0
  138.8910  142.0300   90.0840 C   0  0  0  0  0  0  0  0  0  0  0  0
  139.6340  140.8880   90.5400 C   0  0  0  0  0  0  0  0  0  0  0  0
  138.8480  139.6880   90.2640 C   0  0  0  0  0  0  0  0  0  0  0  0
  138.5300  139.6500   88.7210 C   0  0  0  0  0  0  0  0  0  0  0  0
  1  2  2  0
  2  3  1  0
  3 15  1  0
 15 16  1  0
 16 17  1  0
 17 18  1  0
 18 19  1  0
 19 20  1  0
 20 21  1  0
 21 22  1  0
  2  5  1  0
  5  6  2  0
  6  7  1  0
  7  8  2  0
  8  9  1  0
  9 10  2  0
 10 11  1  0
 11 12  1  0
 11 13  2  0
 13 14  1  0
 20 15  1  0
 14  5  1  0
 22 17  1  0
 13  7  1  0
  3  4  1  0
M  END
> <meeko>
{"is_sidechain": false}

> <source_group>
CHRNA7 canonical

> <source_system>
CHRNA7_encenicline

> <source_run>
canonical_obabel_seed1103_ex32

> <source_seed>
1103

> <vina_pose_rank>
1

> <vina_affinity_kcal_mol>
-9.8710000000000004

> <vina_rmsd_to_crystal_angstrom>
0.29120000000000001

> <minimizedAffinity>
-9.87304

> <CNNscore>
0.9529852271

> <CNNaffinity>
6.9183216095

> <CNN_VS>
6.5930581093

> <CNNaffinity_variance>
0.0214351043

$$$$
CHRNA7_encenicline__canonical_obabel_seed1103_ex32__pose02


 22 25  0  0  0  0  0  0  0  0999 V2000
  143.8460  140.8720   89.9970 O   0  0  0  0  0  0  0  0  0  0  0  0
  143.3600  139.8170   90.2270 C   0  0  0  0  0  0  0  0  0  0  0  0
  141.9310  139.6310   90.0650 N   0  0  0  0  0  0  0  0  0  0  0  0
  141.5200  138.7560   90.2520 H   0  0  0  0  0  0  0  0  0  0  0  0
  144.2490  138.6580   90.6900 C   0  0  0  0  0  0  0  0  0  0  0  0
  145.5840  138.7210   90.9030 C   0  0  0  0  0  0  0  0  0  0  0  0
  146.2850  137.5470   91.3400 C   0  0  0  0  0  0  0  0  0  0  0  0
  147.6260  137.4460   91.6000 C   0  0  0  0  0  0  0  0  0  0  0  0
  148.1670  136.2300   92.0190 C   0  0  0  0  0  0  0  0  0  0  0  0
  147.3350  135.1070   92.1740 C   0  0  0  0  0  0  0  0  0  0  0  0
  145.9650  135.2040   91.9110 C   0  0  0  0  0  0  0  0  0  0  0  0
  144.9140  133.7780   92.1110 Cl  0  0  0  0  0  0  0  0  0  0  0  0
  145.4300  136.4010   91.4980 C   0  0  0  0  0  0  0  0  0  0  0  0
  143.7810  137.0200   91.0470 S   0  0  0  0  0  0  0  0  0  0  0  0
  141.0950  140.7670   89.6160 C   0  0  0  0  0  0  0  0  0  0  0  0
  140.6730  140.5620   88.1480 C   0  0  0  0  0  0  0  0  0  0  0  0
  139.2820  140.5450   88.0180 N   0  0  0  0  0  0  0  0  0  0  0  0
  138.7420  141.7210   88.4930 C   0  0  0  0  0  0  0  0  0  0  0  0
  139.0780  141.9320   89.9390 C   0  0  0  0  0  0  0  0  0  0  0  0
  139.8860  140.8510   90.4300 C   0  0  0  0  0  0  0  0  0  0  0  0
  139.1370  139.6070   90.2700 C   0  0  0  0  0  0  0  0  0  0  0  0
  138.7480  139.4570   88.7500 C   0  0  0  0  0  0  0  0  0  0  0  0
  1  2  2  0
  2  3  1  0
  3 15  1  0
 15 16  1  0
 16 17  1  0
 17 18  1  0
 18 19  1  0
 19 20  1  0
 20 21  1  0
 21 22  1  0
  2  5  1  0
  5  6  2  0
  6  7  1  0
  7  8  2  0
  8  9  1  0
  9 10  2  0
 10 11  1  0
 11 12  1  0
 11 13  2  0
 13 14  1  0
 20 15  1  0
 14  5  1  0
 22 17  1  0
 13  7  1  0
  3  4  1  0
M  END
> <meeko>
{"is_sidechain": false}

> <source_group>
CHRNA7 canonical

> <source_system>
CHRNA7_encenicline

> <source_run>
canonical_obabel_seed1103_ex32

> <source_seed>
1103

> <vina_pose_rank>
2

> <vina_affinity_kcal_mol>
-9.1059999999999999

> <vina_rmsd_to_crystal_angstrom>
1.8498000000000001

> <minimizedAffinity>
-9.12357

> <CNNscore>
0.9612460732

> <CNNaffinity>
7.1246161461

> <CNN_VS>
6.8485093117

> <CNNaffinity_variance>
0.0021908097

$$$$
CHRNA7_encenicline__canonical_obabel_seed1103_ex32__pose03


 22 25  0  0  0  0  0  0  0  0999 V2000
  142.7370  140.4630   91.2180 O   0  0  0  0  0  0  0  0  0  0  0  0
  142.4820  139.3500   90.9050 C   0  0  0  0  0  0  0  0  0  0  0  0
  141.2120  139.0520   90.2730 N   0  0  0  0  0  0  0  0  0  0  0  0
  140.9940  138.1300   90.0080 H   0  0  0  0  0  0  0  0  0  0  0  0
  143.5020  138.2360   91.1700 C   0  0  0  0  0  0  0  0  0  0  0  0
  143.2170  136.9210   91.3170 C   0  0  0  0  0  0  0  0  0  0  0  0
  144.2830  135.9910   91.5590 C   0  0  0  0  0  0  0  0  0  0  0  0
  144.1630  134.6370   91.7280 C   0  0  0  0  0  0  0  0  0  0  0  0
  145.2980  133.8590   91.9590 C   0  0  0  0  0  0  0  0  0  0  0  0
  146.5640  134.4640   92.0190 C   0  0  0  0  0  0  0  0  0  0  0  0
  146.6940  135.8460   91.8470 C   0  0  0  0  0  0  0  0  0  0  0  0
  148.3040  136.6080   91.9220 Cl  0  0  0  0  0  0  0  0  0  0  0  0
  145.5770  136.6150   91.6190 C   0  0  0  0  0  0  0  0  0  0  0  0
  145.2280  138.3770   91.3420 S   0  0  0  0  0  0  0  0  0  0  0  0
  140.2460  140.1470   90.0290 C   0  0  0  0  0  0  0  0  0  0  0  0
  140.7420  141.0380   88.8730 C   0  0  0  0  0  0  0  0  0  0  0  0
  139.8100  141.0820   87.8330 N   0  0  0  0  0  0  0  0  0  0  0  0
  138.6000  141.5540   88.2930 C   0  0  0  0  0  0  0  0  0  0  0  0
  138.0490  140.6810   89.3810 C   0  0  0  0  0  0  0  0  0  0  0  0
  138.9470  139.5940   89.6540 C   0  0  0  0  0  0  0  0  0  0  0  0
  139.1160  138.8160   88.4300 C   0  0  0  0  0  0  0  0  0  0  0  0
  139.6320  139.7830   87.2970 C   0  0  0  0  0  0  0  0  0  0  0  0
  1  2  2  0
  2  3  1  0
  3 15  1  0
 15 16  1  0
 16 17  1  0
 17 18  1  0
 18 19  1  0
 19 20  1  0
 20 21  1  0
 21 22  1  0
  2  5  1  0
  5  6  2  0
  6  7  1  0
  7  8  2  0
  8  9  1  0
  9 10  2  0
 10 11  1  0
 11 12  1  0
 11 13  2  0
 13 14  1  0
 20 15  1  0
 14  5  1  0
 22 17  1  0
 13  7  1  0
  3  4  1  0
M  END
> <meeko>
{"is_sidechain": false}

> <source_group>
CHRNA7 canonical

> <source_system>
CHRNA7_encenicline

> <source_run>
canonical_obabel_seed1103_ex32

> <source_seed>
1103

> <vina_pose_rank>
3

> <vina_affinity_kcal_mol>
-9.0909999999999993

> <vina_rmsd_to_crystal_angstrom>
1.0212000000000001

> <minimizedAffinity>
-9.27826

> <CNNscore>
0.8369299173

> <CNNaffinity>
6.8794465065

> <CNN_VS>
5.7576146126

> <CNNaffinity_variance>
0.0013385838

$$$$
CHRNA7_encenicline__canonical_obabel_seed1103_ex32__pose04


 22 25  0  0  0  0  0  0  0  0999 V2000
  142.8180  140.4770   91.7660 O   0  0  0  0  0  0  0  0  0  0  0  0
  142.7740  139.5040   91.0920 C   0  0  0  0  0  0  0  0  0  0  0  0
  141.6010  139.2410   90.2810 N   0  0  0  0  0  0  0  0  0  0  0  0
  141.5580  138.4360   89.7170 H   0  0  0  0  0  0  0  0  0  0  0  0
  143.9600  138.5340   91.0840 C   0  0  0  0  0  0  0  0  0  0  0  0
  145.2270  138.8360   90.7160 C   0  0  0  0  0  0  0  0  0  0  0  0
  146.2370  137.8180   90.7630 C   0  0  0  0  0  0  0  0  0  0  0  0
  147.5580  137.9610   90.4280 C   0  0  0  0  0  0  0  0  0  0  0  0
  148.4250  136.8720   90.5240 C   0  0  0  0  0  0  0  0  0  0  0  0
  147.9440  135.6270   90.9650 C   0  0  0  0  0  0  0  0  0  0  0  0
  146.5970  135.4750   91.3090 C   0  0  0  0  0  0  0  0  0  0  0  0
  145.9930  133.8940   91.8700 Cl  0  0  0  0  0  0  0  0  0  0  0  0
  145.7410  136.5460   91.2150 C   0  0  0  0  0  0  0  0  0  0  0  0
  143.9770  136.8520   91.5310 S   0  0  0  0  0  0  0  0  0  0  0  0
  140.4690  140.1950   90.3080 C   0  0  0  0  0  0  0  0  0  0  0  0
  140.6410  141.2460   89.1930 C   0  0  0  0  0  0  0  0  0  0  0  0
  139.5510  141.2380   88.3180 N   0  0  0  0  0  0  0  0  0  0  0  0
  138.3820  141.4820   89.0050 C   0  0  0  0  0  0  0  0  0  0  0  0
  138.1430  140.4460   90.0640 C   0  0  0  0  0  0  0  0  0  0  0  0
  139.2130  139.4870   90.0770 C   0  0  0  0  0  0  0  0  0  0  0  0
  139.2780  138.8510   88.7640 C   0  0  0  0  0  0  0  0  0  0  0  0
  139.4630  139.9780   87.6780 C   0  0  0  0  0  0  0  0  0  0  0  0
  1  2  2  0
  2  3  1  0
  3 15  1  0
 15 16  1  0
 16 17  1  0
 17 18  1  0
 18 19  1  0
 19 20  1  0
 20 21  1  0
 21 22  1  0
  2  5  1  0
  5  6  2  0
  6  7  1  0
  7  8  2  0
  8  9  1  0
  9 10  2  0
 10 11  1  0
 11 12  1  0
 11 13  2  0
 13 14  1  0
 20 15  1  0
 14  5  1  0
 22 17  1  0
 13  7  1  0
  3  4  1  0
M  END
> <meeko>
{"is_sidechain": false}

> <source_group>
CHRNA7 canonical

> <source_system>
CHRNA7_encenicline

> <source_run>
canonical_obabel_seed1103_ex32

> <source_seed>
1103

> <vina_pose_rank>
4

> <vina_affinity_kcal_mol>
-8.5630000000000006

> <vina_rmsd_to_crystal_angstrom>
2.1661999999999999

> <minimizedAffinity>
-8.59125

> <CNNscore>
0.8478779197

> <CNNaffinity>
6.8998870850

> <CNN_VS>
5.8502616882

> <CNNaffinity_variance>
0.4508912861

$$$$
CHRNA7_encenicline__canonical_obabel_seed1103_ex32__pose05


 22 25  0  0  0  0  0  0  0  0999 V2000
  140.1300  136.5990   90.2940 O   0  0  0  0  0  0  0  0  0  0  0  0
  140.9750  137.4140   90.4530 C   0  0  0  0  0  0  0  0  0  0  0  0
  140.6650  138.8180   90.2700 N   0  0  0  0  0  0  0  0  0  0  0  0
  141.3610  139.5020   90.4030 H   0  0  0  0  0  0  0  0  0  0  0  0
  142.3870  136.9730   90.8560 C   0  0  0  0  0  0  0  0  0  0  0  0
  142.7710  135.7060   91.1320 C   0  0  0  0  0  0  0  0  0  0  0  0
  144.1350  135.4450   91.4940 C   0  0  0  0  0  0  0  0  0  0  0  0
  144.6810  134.2260   91.7990 C   0  0  0  0  0  0  0  0  0  0  0  0
  146.0320  134.1310   92.1360 C   0  0  0  0  0  0  0  0  0  0  0  0
  146.8330  135.2850   92.1630 C   0  0  0  0  0  0  0  0  0  0  0  0
  146.2820  136.5320   91.8510 C   0  0  0  0  0  0  0  0  0  0  0  0
  147.3040  137.9930   91.8840 Cl  0  0  0  0  0  0  0  0  0  0  0  0
  144.9520  136.6290   91.5190 C   0  0  0  0  0  0  0  0  0  0  0  0
  143.8060  137.9610   91.0530 S   0  0  0  0  0  0  0  0  0  0  0  0
  139.2930  139.2170   89.8820 C   0  0  0  0  0  0  0  0  0  0  0  0
  138.8160  140.3880   90.7630 C   0  0  0  0  0  0  0  0  0  0  0  0
  138.4830  141.5020   89.9880 N   0  0  0  0  0  0  0  0  0  0  0  0
  137.4980  141.1770   89.0810 C   0  0  0  0  0  0  0  0  0  0  0  0
  137.9420  140.0790   88.1600 C   0  0  0  0  0  0  0  0  0  0  0  0
  139.2750  139.6570   88.4900 C   0  0  0  0  0  0  0  0  0  0  0  0
  140.1670  140.8060   88.3600 C   0  0  0  0  0  0  0  0  0  0  0  0
  139.6290  141.9580   89.2910 C   0  0  0  0  0  0  0  0  0  0  0  0
  1  2  2  0
  2  3  1  0
  3 15  1  0
 15 16  1  0
 16 17  1  0
 17 18  1  0
 18 19  1  0
 19 20  1  0
 20 21  1  0
 21 22  1  0
  2  5  1  0
  5  6  2  0
  6  7  1  0
  7  8  2  0
  8  9  1  0
  9 10  2  0
 10 11  1  0
 11 12  1  0
 11 13  2  0
 13 14  1  0
 20 15  1  0
 14  5  1  0
 22 17  1  0
 13  7  1  0
  3  4  1  0
M  END
> <meeko>
{"is_sidechain": false}

> <source_group>
CHRNA7 canonical

> <source_system>
CHRNA7_encenicline

> <source_run>
canonical_obabel_seed1103_ex32

> <source_seed>
1103

> <vina_pose_rank>
5

> <vina_affinity_kcal_mol>
-7.9589999999999996

> <vina_rmsd_to_crystal_angstrom>
2.2938999999999998

> <minimizedAffinity>
-7.96812

> <CNNscore>
0.8189043403

> <CNNaffinity>
7.2699604034

> <CNN_VS>
5.9534020424

> <CNNaffinity_variance>
0.1229056939

$$$$
CHRNA7_encenicline__canonical_obabel_seed1103_ex32__pose06


 22 25  0  0  0  0  0  0  0  0999 V2000
  145.6960  138.7600   93.0790 O   0  0  0  0  0  0  0  0  0  0  0  0
  145.4560  138.3880   91.9810 C   0  0  0  0  0  0  0  0  0  0  0  0
  146.4920  137.7450   91.1950 N   0  0  0  0  0  0  0  0  0  0  0  0
  146.2990  137.4310   90.2820 H   0  0  0  0  0  0  0  0  0  0  0  0
  144.0510  138.5880   91.4030 C   0  0  0  0  0  0  0  0  0  0  0  0
  143.1250  137.6180   91.2180 C   0  0  0  0  0  0  0  0  0  0  0  0
  141.8450  137.9600   90.6660 C   0  0  0  0  0  0  0  0  0  0  0  0
  140.8060  137.1010   90.4200 C   0  0  0  0  0  0  0  0  0  0  0  0
  139.6160  137.5840   89.8760 C   0  0  0  0  0  0  0  0  0  0  0  0
  139.4820  138.9510   89.5790 C   0  0  0  0  0  0  0  0  0  0  0  0
  140.5390  139.8330   89.8290 C   0  0  0  0  0  0  0  0  0  0  0  0
  140.3620  141.5670   89.4530 Cl  0  0  0  0  0  0  0  0  0  0  0  0
  141.7120  139.3600   90.3650 C   0  0  0  0  0  0  0  0  0  0  0  0
  143.3140  140.0670   90.8560 S   0  0  0  0  0  0  0  0  0  0  0  0
  147.8410  137.5640   91.7780 C   0  0  0  0  0  0  0  0  0  0  0  0
  148.0830  136.0740   92.0890 C   0  0  0  0  0  0  0  0  0  0  0  0
  149.2040  135.5900   91.4080 N   0  0  0  0  0  0  0  0  0  0  0  0
  150.3220  136.3200   91.7470 C   0  0  0  0  0  0  0  0  0  0  0  0
  150.1530  137.7710   91.4040 C   0  0  0  0  0  0  0  0  0  0  0  0
  148.8590  138.0020   90.8270 C   0  0  0  0  0  0  0  0  0  0  0  0
  148.7400  137.1900   89.6190 C   0  0  0  0  0  0  0  0  0  0  0  0
  148.9890  135.6830   90.0110 C   0  0  0  0  0  0  0  0  0  0  0  0
  1  2  2  0
  2  3  1  0
  3 15  1  0
 15 16  1  0
 16 17  1  0
 17 18  1  0
 18 19  1  0
 19 20  1  0
 20 21  1  0
 21 22  1  0
  2  5  1  0
  5  6  2  0
  6  7  1  0
  7  8  2  0
  8  9  1  0
  9 10  2  0
 10 11  1  0
 11 12  1  0
 11 13  2  0
 13 14  1  0
 20 15  1  0
 14  5  1  0
 22 17  1  0
 13  7  1  0
  3  4  1  0
M  END
> <meeko>
{"is_sidechain": false}

> <source_group>
CHRNA7 canonical

> <source_system>
CHRNA7_encenicline

> <source_run>
canonical_obabel_seed1103_ex32

> <source_seed>
1103

> <vina_pose_rank>
6

> <vina_affinity_kcal_mol>
-7.6200000000000001

> <vina_rmsd_to_crystal_angstrom>
7.9786000000000001

> <minimizedAffinity>
-7.62346

> <CNNscore>
0.2175052166

> <CNNaffinity>
5.0369434357

> <CNN_VS>
1.0955615044

> <CNNaffinity_variance>
0.3762045205

$$$$
CHRNA7_encenicline__canonical_obabel_seed1103_ex32__pose07


 22 25  0  0  0  0  0  0  0  0999 V2000
  146.1740  138.7600   92.9390 O   0  0  0  0  0  0  0  0  0  0  0  0
  145.8830  138.3270   91.8760 C   0  0  0  0  0  0  0  0  0  0  0  0
  146.9130  137.7890   91.0100 N   0  0  0  0  0  0  0  0  0  0  0  0
  146.6790  137.4250   90.1260 H   0  0  0  0  0  0  0  0  0  0  0  0
  144.4160  138.3380   91.4290 C   0  0  0  0  0  0  0  0  0  0  0  0
  143.7010  139.4350   91.0880 C   0  0  0  0  0  0  0  0  0  0  0  0
  142.3310  139.2880   90.6860 C   0  0  0  0  0  0  0  0  0  0  0  0
  141.4770  140.2910   90.3110 C   0  0  0  0  0  0  0  0  0  0  0  0
  140.1650  139.9910   89.9450 C   0  0  0  0  0  0  0  0  0  0  0  0
  139.7180  138.6580   89.9620 C   0  0  0  0  0  0  0  0  0  0  0  0
  140.5860  137.6290   90.3420 C   0  0  0  0  0  0  0  0  0  0  0  0
  140.0140  135.9400   90.3580 Cl  0  0  0  0  0  0  0  0  0  0  0  0
  141.8790  137.9230   90.7030 C   0  0  0  0  0  0  0  0  0  0  0  0
  143.3360  136.9850   91.2530 S   0  0  0  0  0  0  0  0  0  0  0  0
  148.3220  137.7900   91.4670 C   0  0  0  0  0  0  0  0  0  0  0  0
  148.7010  136.3970   92.0070 C   0  0  0  0  0  0  0  0  0  0  0  0
  149.7830  135.8590   91.3050 N   0  0  0  0  0  0  0  0  0  0  0  0
  150.8730  136.6980   91.3870 C   0  0  0  0  0  0  0  0  0  0  0  0
  150.5670  138.0510   90.8160 C   0  0  0  0  0  0  0  0  0  0  0  0
  149.2090  138.1030   90.3500 C   0  0  0  0  0  0  0  0  0  0  0  0
  149.0350  137.0790   89.3230 C   0  0  0  0  0  0  0  0  0  0  0  0
  149.4290  135.6850   89.9440 C   0  0  0  0  0  0  0  0  0  0  0  0
  1  2  2  0
  2  3  1  0
  3 15  1  0
 15 16  1  0
 16 17  1  0
 17 18  1  0
 18 19  1  0
 19 20  1  0
 20 21  1  0
 21 22  1  0
  2  5  1  0
  5  6  2  0
  6  7  1  0
  7  8  2  0
  8  9  1  0
  9 10  2  0
 10 11  1  0
 11 12  1  0
 11 13  2  0
 13 14  1  0
 20 15  1  0
 14  5  1  0
 22 17  1  0
 13  7  1  0
  3  4  1  0
M  END
> <meeko>
{"is_sidechain": false}

> <source_group>
CHRNA7 canonical

> <source_system>
CHRNA7_encenicline

> <source_run>
canonical_obabel_seed1103_ex32

> <source_seed>
1103

> <vina_pose_rank>
7

> <vina_affinity_kcal_mol>
-7.5149999999999997

> <vina_rmsd_to_crystal_angstrom>
8.1289999999999996

> <minimizedAffinity>
-7.53148

> <CNNscore>
0.1813483089

> <CNNaffinity>
5.0449357033

> <CNN_VS>
0.9148905873

> <CNNaffinity_variance>
0.5267208219

$$$$
CHRNA7_encenicline__canonical_obabel_seed1103_ex32__pose08


 22 25  0  0  0  0  0  0  0  0999 V2000
  144.8610  140.7120   91.1770 O   0  0  0  0  0  0  0  0  0  0  0  0
  144.2570  139.7610   90.8120 C   0  0  0  0  0  0  0  0  0  0  0  0
  144.8670  138.4480   90.8830 N   0  0  0  0  0  0  0  0  0  0  0  0
  144.3700  137.6530   90.5830 H   0  0  0  0  0  0  0  0  0  0  0  0
  142.8330  139.9310   90.2710 C   0  0  0  0  0  0  0  0  0  0  0  0
  141.7440  140.2690   91.0000 C   0  0  0  0  0  0  0  0  0  0  0  0
  140.4700  140.3930   90.3510 C   0  0  0  0  0  0  0  0  0  0  0  0
  139.2810  140.7280   90.9420 C   0  0  0  0  0  0  0  0  0  0  0  0
  138.1180  140.8070   90.1760 C   0  0  0  0  0  0  0  0  0  0  0  0
  138.1660  140.5440   88.7960 C   0  0  0  0  0  0  0  0  0  0  0  0
  139.3770  140.2030   88.1860 C   0  0  0  0  0  0  0  0  0  0  0  0
  139.4330  139.8720   86.4350 Cl  0  0  0  0  0  0  0  0  0  0  0  0
  140.5240  140.1240   88.9390 C   0  0  0  0  0  0  0  0  0  0  0  0
  142.2740  139.7370   88.6340 S   0  0  0  0  0  0  0  0  0  0  0  0
  146.2440  138.3120   91.4100 C   0  0  0  0  0  0  0  0  0  0  0  0
  146.3220  137.1120   92.3740 C   0  0  0  0  0  0  0  0  0  0  0  0
  147.2680  136.1780   91.9450 N   0  0  0  0  0  0  0  0  0  0  0  0
  148.5090  136.7660   91.8390 C   0  0  0  0  0  0  0  0  0  0  0  0
  148.4940  137.9040   90.8620 C   0  0  0  0  0  0  0  0  0  0  0  0
  147.1780  138.0760   90.3130 C   0  0  0  0  0  0  0  0  0  0  0  0
  146.7940  136.8380   89.6400 C   0  0  0  0  0  0  0  0  0  0  0  0
  146.8860  135.6600   90.6830 C   0  0  0  0  0  0  0  0  0  0  0  0
  1  2  2  0
  2  3  1  0
  3 15  1  0
 15 16  1  0
 16 17  1  0
 17 18  1  0
 18 19  1  0
 19 20  1  0
 20 21  1  0
 21 22  1  0
  2  5  1  0
  5  6  2  0
  6  7  1  0
  7  8  2  0
  8  9  1  0
  9 10  2  0
 10 11  1  0
 11 12  1  0
 11 13  2  0
 13 14  1  0
 20 15  1  0
 14  5  1  0
 22 17  1  0
 13  7  1  0
  3  4  1  0
M  END
> <meeko>
{"is_sidechain": false}

> <source_group>
CHRNA7 canonical

> <source_system>
CHRNA7_encenicline

> <source_run>
canonical_obabel_seed1103_ex32

> <source_seed>
1103

> <vina_pose_rank>
8

> <vina_affinity_kcal_mol>
-7.3780000000000001

> <vina_rmsd_to_crystal_angstrom>
7.8217999999999996

> <minimizedAffinity>
-7.39057

> <CNNscore>
0.1554023623

> <CNNaffinity>
5.2858839035

> <CNN_VS>
0.8214388490

> <CNNaffinity_variance>
0.3450640738

$$$$
CHRNA7_encenicline__canonical_obabel_seed1103_ex32__pose09


 22 25  0  0  0  0  0  0  0  0999 V2000
  146.2720  135.8080   92.5130 O   0  0  0  0  0  0  0  0  0  0  0  0
  146.1040  136.6490   91.6960 C   0  0  0  0  0  0  0  0  0  0  0  0
  147.2480  137.2750   91.0620 N   0  0  0  0  0  0  0  0  0  0  0  0
  147.1170  137.9730   90.3800 H   0  0  0  0  0  0  0  0  0  0  0  0
  144.6780  137.0630   91.3160 C   0  0  0  0  0  0  0  0  0  0  0  0
  143.6240  136.2270   91.1670 C   0  0  0  0  0  0  0  0  0  0  0  0
  142.3430  136.7640   90.8090 C   0  0  0  0  0  0  0  0  0  0  0  0
  141.1840  136.0580   90.6220 C   0  0  0  0  0  0  0  0  0  0  0  0
  140.0090  136.7240   90.2720 C   0  0  0  0  0  0  0  0  0  0  0  0
  140.0140  138.1200   90.1110 C   0  0  0  0  0  0  0  0  0  0  0  0
  141.1930  138.8470   90.3000 C   0  0  0  0  0  0  0  0  0  0  0  0
  141.1930  140.6180   90.0960 Cl  0  0  0  0  0  0  0  0  0  0  0  0
  142.3520  138.1930   90.6450 C   0  0  0  0  0  0  0  0  0  0  0  0
  144.0740  138.6620   90.9910 S   0  0  0  0  0  0  0  0  0  0  0  0
  148.6140  136.8560   91.4470 C   0  0  0  0  0  0  0  0  0  0  0  0
  149.0860  135.7020   90.5400 C   0  0  0  0  0  0  0  0  0  0  0  0
  150.2600  136.0390   89.8620 N   0  0  0  0  0  0  0  0  0  0  0  0
  151.2570  136.3580   90.7590 C   0  0  0  0  0  0  0  0  0  0  0  0
  150.8640  137.5180   91.6240 C   0  0  0  0  0  0  0  0  0  0  0  0
  149.5430  137.9710   91.2870 C   0  0  0  0  0  0  0  0  0  0  0  0
  149.5390  138.3740   89.8830 C   0  0  0  0  0  0  0  0  0  0  0  0
  150.0200  137.1490   89.0160 C   0  0  0  0  0  0  0  0  0  0  0  0
  1  2  2  0
  2  3  1  0
  3 15  1  0
 15 16  1  0
 16 17  1  0
 17 18  1  0
 18 19  1  0
 19 20  1  0
 20 21  1  0
 21 22  1  0
  2  5  1  0
  5  6  2  0
  6  7  1  0
  7  8  2  0
  8  9  1  0
  9 10  2  0
 10 11  1  0
 11 12  1  0
 11 13  2  0
 13 14  1  0
 20 15  1  0
 14  5  1  0
 22 17  1  0
 13  7  1  0
  3  4  1  0
M  END
> <meeko>
{"is_sidechain": false}

> <source_group>
CHRNA7 canonical

> <source_system>
CHRNA7_encenicline

> <source_run>
canonical_obabel_seed1103_ex32

> <source_seed>
1103

> <vina_pose_rank>
9

> <vina_affinity_kcal_mol>
-7.3490000000000002

> <vina_rmsd_to_crystal_angstrom>
8.1334

> <minimizedAffinity>
-7.38451

> <CNNscore>
0.2408532798

> <CNNaffinity>
5.2492384911

> <CNN_VS>
1.2642962933

> <CNNaffinity_variance>
0.2527145147

$$$$
CHRNA7_encenicline__canonical_obabel_seed1103_ex32__pose10


 22 25  0  0  0  0  0  0  0  0999 V2000
  140.1800  136.8730   90.3400 O   0  0  0  0  0  0  0  0  0  0  0  0
  141.0670  137.6520   90.2460 C   0  0  0  0  0  0  0  0  0  0  0  0
  140.8170  138.9630   89.6790 N   0  0  0  0  0  0  0  0  0  0  0  0
  141.5470  139.6170   89.6000 H   0  0  0  0  0  0  0  0  0  0  0  0
  142.4700  137.2670   90.7290 C   0  0  0  0  0  0  0  0  0  0  0  0
  143.4540  138.1300   91.0710 C   0  0  0  0  0  0  0  0  0  0  0  0
  144.7210  137.6180   91.5090 C   0  0  0  0  0  0  0  0  0  0  0  0
  145.8120  138.3540   91.8900 C   0  0  0  0  0  0  0  0  0  0  0  0
  146.9830  137.7100   92.2930 C   0  0  0  0  0  0  0  0  0  0  0  0
  147.0430  136.3060   92.3080 C   0  0  0  0  0  0  0  0  0  0  0  0
  145.9320  135.5490   91.9220 C   0  0  0  0  0  0  0  0  0  0  0  0
  146.0140  133.7680   91.9450 Cl  0  0  0  0  0  0  0  0  0  0  0  0
  144.7780  136.1810   91.5240 C   0  0  0  0  0  0  0  0  0  0  0  0
  143.1290  135.6710   90.9530 S   0  0  0  0  0  0  0  0  0  0  0  0
  139.4520  139.3090   89.2210 C   0  0  0  0  0  0  0  0  0  0  0  0
  138.5820  139.7220   90.4240 C   0  0  0  0  0  0  0  0  0  0  0  0
  138.0820  141.0170   90.2680 N   0  0  0  0  0  0  0  0  0  0  0  0
  137.3410  141.1080   89.1100 C   0  0  0  0  0  0  0  0  0  0  0  0
  138.1670  140.7730   87.9030 C   0  0  0  0  0  0  0  0  0  0  0  0
  139.5070  140.4340   88.2920 C   0  0  0  0  0  0  0  0  0  0  0  0
  140.0880  141.5790   88.9890 C   0  0  0  0  0  0  0  0  0  0  0  0
  139.1570  141.9380   90.2090 C   0  0  0  0  0  0  0  0  0  0  0  0
  1  2  2  0
  2  3  1  0
  3 15  1  0
 15 16  1  0
 16 17  1  0
 17 18  1  0
 18 19  1  0
 19 20  1  0
 20 21  1  0
 21 22  1  0
  2  5  1  0
  5  6  2  0
  6  7  1  0
  7  8  2  0
  8  9  1  0
  9 10  2  0
 10 11  1  0
 11 12  1  0
 11 13  2  0
 13 14  1  0
 20 15  1  0
 14  5  1  0
 22 17  1  0
 13  7  1  0
  3  4  1  0
M  END
> <meeko>
{"is_sidechain": false}

> <source_group>
CHRNA7 canonical

> <source_system>
CHRNA7_encenicline

> <source_run>
canonical_obabel_seed1103_ex32

> <source_seed>
1103

> <vina_pose_rank>
10

> <vina_affinity_kcal_mol>
-7.2290000000000001

> <vina_rmsd_to_crystal_angstrom>
2.7282000000000002

> <minimizedAffinity>
-7.32843

> <CNNscore>
0.7856397629

> <CNNaffinity>
6.8106732368

> <CNN_VS>
5.3507356644

> <CNNaffinity_variance>
0.1934003383

$$$$
CHRNA7_encenicline__canonical_obabel_seed1103_ex32__pose11


 22 25  0  0  0  0  0  0  0  0999 V2000
  144.8760  140.8100   91.0160 O   0  0  0  0  0  0  0  0  0  0  0  0
  144.2460  139.8640   90.6820 C   0  0  0  0  0  0  0  0  0  0  0  0
  144.8500  138.5460   90.7190 N   0  0  0  0  0  0  0  0  0  0  0  0
  144.3320  137.7550   90.4470 H   0  0  0  0  0  0  0  0  0  0  0  0
  142.7960  140.0450   90.2190 C   0  0  0  0  0  0  0  0  0  0  0  0
  142.3890  140.2050   88.9390 C   0  0  0  0  0  0  0  0  0  0  0  0
  140.9900  140.3610   88.6570 C   0  0  0  0  0  0  0  0  0  0  0  0
  140.4190  140.5310   87.4240 C   0  0  0  0  0  0  0  0  0  0  0  0
  139.0350  140.6710   87.3080 C   0  0  0  0  0  0  0  0  0  0  0  0
  138.2280  140.6390   88.4580 C   0  0  0  0  0  0  0  0  0  0  0  0
  138.8050  140.4650   89.7200 C   0  0  0  0  0  0  0  0  0  0  0  0
  137.7740  140.4230   91.1740 Cl  0  0  0  0  0  0  0  0  0  0  0  0
  140.1670  140.3270   89.8360 C   0  0  0  0  0  0  0  0  0  0  0  0
  141.3540  140.0870   91.1920 S   0  0  0  0  0  0  0  0  0  0  0  0
  146.2520  138.4000   91.1720 C   0  0  0  0  0  0  0  0  0  0  0  0
  146.3160  137.4560   92.3880 C   0  0  0  0  0  0  0  0  0  0  0  0
  147.1420  136.3580   92.1340 N   0  0  0  0  0  0  0  0  0  0  0  0
  148.4130  136.7790   91.8080 C   0  0  0  0  0  0  0  0  0  0  0  0
  148.4050  137.6540   90.5900 C   0  0  0  0  0  0  0  0  0  0  0  0
  147.0640  137.8240   90.1040 C   0  0  0  0  0  0  0  0  0  0  0  0
  146.5230  136.5080   89.7740 C   0  0  0  0  0  0  0  0  0  0  0  0
  146.6110  135.6010   91.0600 C   0  0  0  0  0  0  0  0  0  0  0  0
  1  2  2  0
  2  3  1  0
  3 15  1  0
 15 16  1  0
 16 17  1  0
 17 18  1  0
 18 19  1  0
 19 20  1  0
 20 21  1  0
 21 22  1  0
  2  5  1  0
  5  6  2  0
  6  7  1  0
  7  8  2  0
  8  9  1  0
  9 10  2  0
 10 11  1  0
 11 12  1  0
 11 13  2  0
 13 14  1  0
 20 15  1  0
 14  5  1  0
 22 17  1  0
 13  7  1  0
  3  4  1  0
M  END
> <meeko>
{"is_sidechain": false}

> <source_group>
CHRNA7 canonical

> <source_system>
CHRNA7_encenicline

> <source_run>
canonical_obabel_seed1103_ex32

> <source_seed>
1103

> <vina_pose_rank>
11

> <vina_affinity_kcal_mol>
-7.1820000000000004

> <vina_rmsd_to_crystal_angstrom>
7.8872999999999998

> <minimizedAffinity>
-7.18731

> <CNNscore>
0.2053259015

> <CNNaffinity>
5.5091071129

> <CNN_VS>
1.1311624050

> <CNNaffinity_variance>
0.2072145939

$$$$
CHRNA7_encenicline__canonical_obabel_seed1103_ex32__pose12


 22 25  0  0  0  0  0  0  0  0999 V2000
  147.7970  135.1740   92.5960 O   0  0  0  0  0  0  0  0  0  0  0  0
  147.7590  136.2340   92.0690 C   0  0  0  0  0  0  0  0  0  0  0  0
  148.9940  136.9290   91.7580 N   0  0  0  0  0  0  0  0  0  0  0  0
  148.9710  137.8090   91.3180 H   0  0  0  0  0  0  0  0  0  0  0  0
  146.4040  136.8590   91.7190 C   0  0  0  0  0  0  0  0  0  0  0  0
  146.1610  138.1800   91.5510 C   0  0  0  0  0  0  0  0  0  0  0  0
  144.8350  138.6170   91.2210 C   0  0  0  0  0  0  0  0  0  0  0  0
  144.4270  139.9090   91.0170 C   0  0  0  0  0  0  0  0  0  0  0  0
  143.0950  140.1790   90.7030 C   0  0  0  0  0  0  0  0  0  0  0  0
  142.1710  139.1260   90.5950 C   0  0  0  0  0  0  0  0  0  0  0  0
  142.5810  137.8050   90.8010 C   0  0  0  0  0  0  0  0  0  0  0  0
  141.4040  136.4730   90.6610 Cl  0  0  0  0  0  0  0  0  0  0  0  0
  143.8920  137.5360   91.1110 C   0  0  0  0  0  0  0  0  0  0  0  0
  144.8840  136.0530   91.4580 S   0  0  0  0  0  0  0  0  0  0  0  0
  150.2900  136.3020   92.1070 C   0  0  0  0  0  0  0  0  0  0  0  0
  150.7980  135.4530   90.9250 C   0  0  0  0  0  0  0  0  0  0  0  0
  152.0530  135.8880   90.4920 N   0  0  0  0  0  0  0  0  0  0  0  0
  152.9630  135.8320   91.5250 C   0  0  0  0  0  0  0  0  0  0  0  0
  152.5370  136.6940   92.6770 C   0  0  0  0  0  0  0  0  0  0  0  0
  151.2840  137.3340   92.3880 C   0  0  0  0  0  0  0  0  0  0  0  0
  151.4490  138.1520   91.1890 C   0  0  0  0  0  0  0  0  0  0  0  0
  151.9600  137.2220   90.0230 C   0  0  0  0  0  0  0  0  0  0  0  0
  1  2  2  0
  2  3  1  0
  3 15  1  0
 15 16  1  0
 16 17  1  0
 17 18  1  0
 18 19  1  0
 19 20  1  0
 20 21  1  0
 21 22  1  0
  2  5  1  0
  5  6  2  0
  6  7  1  0
  7  8  2  0
  8  9  1  0
  9 10  2  0
 10 11  1  0
 11 12  1  0
 11 13  2  0
 13 14  1  0
 20 15  1  0
 14  5  1  0
 22 17  1  0
 13  7  1  0
  3  4  1  0
M  END
> <meeko>
{"is_sidechain": false}

> <source_group>
CHRNA7 canonical

> <source_system>
CHRNA7_encenicline

> <source_run>
canonical_obabel_seed1103_ex32

> <source_seed>
1103

> <vina_pose_rank>
12

> <vina_affinity_kcal_mol>
-6.9909999999999997

> <vina_rmsd_to_crystal_angstrom>
9.2248000000000001

> <minimizedAffinity>
-7.02389

> <CNNscore>
0.2141108662

> <CNNaffinity>
4.9621505737

> <CNN_VS>
1.0624504089

> <CNNaffinity_variance>
0.4445095360

$$$$
