
     RDKit          3D

 70 72  0  0  0  0  0  0  0  0999 V2000
   41.9000   20.3100  101.3100 C   0  0  0  0  0  0  0  0  0  0  0  0
   42.5580   21.6170  100.8350 C   0  0  0  0  0  0  0  0  0  0  0  0
   42.0980   22.9050  101.0410 C   0  0  0  0  0  0  0  0  0  0  0  0
   40.8980   23.4660  101.7400 C   0  0  0  0  0  0  0  0  0  0  0  0
   40.4810   24.7890  101.3780 C   0  0  0  0  0  0  0  0  0  0  0  0
   39.3570   25.4000  101.9780 C   0  0  0  0  0  0  0  0  0  0  0  0
   38.5920   24.7080  102.9640 C   0  0  0  0  0  0  0  0  0  0  0  0
   37.3890   25.3380  103.5950 C   0  0  0  0  0  0  0  0  0  0  0  0
   37.0460   26.4750  103.2510 O   0  0  0  0  0  0  0  0  0  0  0  0
   36.7500   24.7070  104.4460 O   0  0  0  0  0  0  0  0  0  0  0  0
   39.0060   23.3980  103.3350 C   0  0  0  0  0  0  0  0  0  0  0  0
   40.1360   22.7910  102.7300 C   0  0  0  0  0  0  0  0  0  0  0  0
   43.8370   21.4640  100.0480 C   0  0  0  0  0  0  0  0  0  0  0  0
   44.8810   22.4150  100.1500 C   0  0  0  0  0  0  0  0  0  0  0  0
   46.0590   22.2660   99.4060 C   0  0  0  0  0  0  0  0  0  0  0  0
   46.2720   21.1570   98.5230 C   0  0  0  0  0  0  0  0  0  0  0  0
   45.2180   20.1710   98.4020 C   0  0  0  0  0  0  0  0  0  0  0  0
   44.0310   20.3570   99.1750 C   0  0  0  0  0  0  0  0  0  0  0  0
   45.3510   18.9280   97.4770 C   0  0  1  0  0  0  0  0  0  0  0  0
   44.7910   17.6850   98.2070 C   0  0  0  0  0  0  0  0  0  0  0  0
   44.5550   19.0970   96.1590 C   0  0  0  0  0  0  0  0  0  0  0  0
   46.8350   18.6340   97.1030 C   0  0  0  0  0  0  0  0  0  0  0  0
   47.6340   19.8930   96.6890 C   0  0  0  0  0  0  0  0  0  0  0  0
   47.6100   21.0590   97.7340 C   0  0  1  0  0  0  0  0  0  0  0  0
   47.8830   22.3810   96.9760 C   0  0  0  0  0  0  0  0  0  0  0  0
   48.7720   20.8130   98.7170 C   0  0  0  0  0  0  0  0  0  0  0  0
   41.8872   20.2845  102.4096 H   0  0  0  0  0  0  0  0  0  0  0  0
   40.8690   20.2594  100.9300 H   0  0  0  0  0  0  0  0  0  0  0  0
   42.4734   19.4516  100.9300 H   0  0  0  0  0  0  0  0  0  0  0  0
   41.9871   21.5632   99.8963 H   0  0  0  0  0  0  0  0  0  0  0  0
   42.9397   23.3945  101.5528 H   0  0  0  0  0  0  0  0  0  0  0  0
   41.7118   23.0504  100.0213 H   0  0  0  0  0  0  0  0  0  0  0  0
   41.5490   23.8850  102.5214 H   0  0  0  0  0  0  0  0  0  0  0  0
   41.3372   25.4498  101.5787 H   0  0  0  0  0  0  0  0  0  0  0  0
   40.1496   24.6555  100.3376 H   0  0  0  0  0  0  0  0  0  0  0  0
   39.7176   26.3248  102.4520 H   0  0  0  0  0  0  0  0  0  0  0  0
   38.6509   25.4921  101.1396 H   0  0  0  0  0  0  0  0  0  0  0  0
   39.2286   25.1313  103.7550 H   0  0  0  0  0  0  0  0  0  0  0  0
   38.0267   25.7683  104.3812 H   0  0  0  0  0  0  0  0  0  0  0  0
   36.8795   27.0271  104.0557 H   0  0  0  0  0  0  0  0  0  0  0  0
   37.0364   24.9898  105.3505 H   0  0  0  0  0  0  0  0  0  0  0  0
   39.2082   23.4281  104.4158 H   0  0  0  0  0  0  0  0  0  0  0  0
   38.1749   22.7714  102.9791 H   0  0  0  0  0  0  0  0  0  0  0  0
   40.8324   22.5483  103.5461 H   0  0  0  0  0  0  0  0  0  0  0  0
   39.6849   21.9654  102.1600 H   0  0  0  0  0  0  0  0  0  0  0  0
   43.3957   22.0373   99.2194 H   0  0  0  0  0  0  0  0  0  0  0  0
   44.4503   23.3863   99.8654 H   0  0  0  0  0  0  0  0  0  0  0  0
   45.2276   22.2887  101.1863 H   0  0  0  0  0  0  0  0  0  0  0  0
   46.1476   23.1715   98.7877 H   0  0  0  0  0  0  0  0  0  0  0  0
   46.8033   22.0763  100.1935 H   0  0  0  0  0  0  0  0  0  0  0  0
   46.7140   20.5829   99.3507 H   0  0  0  0  0  0  0  0  0  0  0  0
   45.6637   19.5935   99.2253 H   0  0  0  0  0  0  0  0  0  0  0  0
   43.2022   20.3926   98.4527 H   0  0  0  0  0  0  0  0  0  0  0  0
   44.1032   19.5245   99.8903 H   0  0  0  0  0  0  0  0  0  0  0  0
   44.8593   17.8366   99.2944 H   0  0  0  0  0  0  0  0  0  0  0  0
   43.7388   17.5360   97.9229 H   0  0  0  0  0  0  0  0  0  0  0  0
   45.3766   16.7982   97.9229 H   0  0  0  0  0  0  0  0  0  0  0  0
   43.5034   19.3203   96.3918 H   0  0  0  0  0  0  0  0  0  0  0  0
   44.9847   19.9239   95.5746 H   0  0  0  0  0  0  0  0  0  0  0  0
   44.6116   18.1668   95.5746 H   0  0  0  0  0  0  0  0  0  0  0  0
   47.3293   18.1802   97.9746 H   0  0  0  0  0  0  0  0  0  0  0  0
   46.8197   17.9625   96.2319 H   0  0  0  0  0  0  0  0  0  0  0  0
   48.6815   19.5968   96.5307 H   0  0  0  0  0  0  0  0  0  0  0  0
   47.1508   20.2815   95.7804 H   0  0  0  0  0  0  0  0  0  0  0  0
   48.0503   23.1914   97.7008 H   0  0  0  0  0  0  0  0  0  0  0  0
   48.7759   22.2638   96.3443 H   0  0  0  0  0  0  0  0  0  0  0  0
   47.0167   22.6271   96.3443 H   0  0  0  0  0  0  0  0  0  0  0  0
   48.4015   20.8914   99.7497 H   0  0  0  0  0  0  0  0  0  0  0  0
   49.1858   19.8074   98.5513 H   0  0  0  0  0  0  0  0  0  0  0  0
   49.5578   21.5647   98.5513 H   0  0  0  0  0  0  0  0  0  0  0  0
  2  1  1  0
  3  2  1  0
  4  3  1  0
  5  4  1  0
  6  5  1  0
  7  6  1  0
  8  7  1  0
  9  8  1  0
 10  8  1  0
 11  7  1  0
 12 11  1  0
 12  4  1  0
 13  2  1  0
 14 13  1  0
 15 14  1  0
 16 15  1  0
 17 16  1  0
 18 17  1  0
 18 13  1  0
 19 17  1  0
 19 20  1  1
 21 19  1  0
 22 19  1  0
 23 22  1  0
 24 23  1  0
 24 16  1  0
 24 25  1  6
 26 24  1  0
  1 27  1  0
  1 28  1  0
  1 29  1  0
  2 30  1  0
  3 31  1  0
  3 32  1  0
  4 33  1  0
  5 34  1  0
  5 35  1  0
  6 36  1  0
  6 37  1  0
  7 38  1  0
  8 39  1  0
  9 40  1  0
 10 41  1  0
 11 42  1  0
 11 43  1  0
 12 44  1  0
 12 45  1  0
 13 46  1  0
 14 47  1  0
 14 48  1  0
 15 49  1  0
 15 50  1  0
 16 51  1  0
 17 52  1  0
 18 53  1  0
 18 54  1  0
 20 55  1  0
 20 56  1  0
 20 57  1  0
 21 58  1  0
 21 59  1  0
 21 60  1  0
 22 61  1  0
 22 62  1  0
 23 63  1  0
 23 64  1  0
 25 65  1  0
 25 66  1  0
 25 67  1  0
 26 68  1  0
 26 69  1  0
 26 70  1  0
M  END
$$$$
