DISULFIRAM
     RDKit          3D

 36 35  0  0  0  0  0  0  0  0999 V2000
    3.4923    1.9692   -0.4149 C   0  0  0  0  0  0  0  0  0  0  0  0
    3.4978    1.5623    1.0528 C   0  0  0  0  0  0  0  0  0  0  0  0
    2.5289    0.4895    1.3526 N   0  0  0  0  0  0  0  0  0  0  0  0
    3.1239   -0.8475    1.5475 C   0  0  0  0  0  0  0  0  0  0  0  0
    3.7295   -1.4345    0.2812 C   0  0  0  0  0  0  0  0  0  0  0  0
    1.1585    0.7779    1.5349 C   0  0  0  0  0  0  0  0  0  0  0  0
    0.4974    2.3268    1.6764 S   0  0  0  0  0  0  0  0  0  0  0  0
    0.0314   -0.5827    1.6985 S   0  0  0  0  0  0  0  0  0  0  0  0
   -0.0571   -1.3371   -0.2228 S   0  0  0  0  0  0  0  0  0  0  0  0
   -1.1616   -0.2020   -1.0229 C   0  0  0  0  0  0  0  0  0  0  0  0
   -0.4718    0.9214   -2.0779 S   0  0  0  0  0  0  0  0  0  0  0  0
   -2.5416   -0.3414   -0.7685 N   0  0  0  0  0  0  0  0  0  0  0  0
   -3.5231    0.6227   -1.2981 C   0  0  0  0  0  0  0  0  0  0  0  0
   -3.7515    1.7750   -0.3309 C   0  0  0  0  0  0  0  0  0  0  0  0
   -3.1360   -1.4623   -0.0184 C   0  0  0  0  0  0  0  0  0  0  0  0
   -3.4475   -2.6414   -0.9289 C   0  0  0  0  0  0  0  0  0  0  0  0
    4.2476    2.7411   -0.5932 H   0  0  0  0  0  0  0  0  0  0  0  0
    3.7159    1.1201   -1.0670 H   0  0  0  0  0  0  0  0  0  0  0  0
    2.5232    2.3713   -0.7220 H   0  0  0  0  0  0  0  0  0  0  0  0
    3.2927    2.4346    1.6810 H   0  0  0  0  0  0  0  0  0  0  0  0
    4.5024    1.2236    1.3320 H   0  0  0  0  0  0  0  0  0  0  0  0
    3.9034   -0.7456    2.3128 H   0  0  0  0  0  0  0  0  0  0  0  0
    2.4065   -1.5570    1.9619 H   0  0  0  0  0  0  0  0  0  0  0  0
    3.0092   -1.4507   -0.5407 H   0  0  0  0  0  0  0  0  0  0  0  0
    4.6000   -0.8585   -0.0472 H   0  0  0  0  0  0  0  0  0  0  0  0
    4.0654   -2.4600    0.4652 H   0  0  0  0  0  0  0  0  0  0  0  0
   -4.4688    0.0998   -1.4828 H   0  0  0  0  0  0  0  0  0  0  0  0
   -3.2029    1.0133   -2.2675 H   0  0  0  0  0  0  0  0  0  0  0  0
   -4.4928    2.4699   -0.7371 H   0  0  0  0  0  0  0  0  0  0  0  0
   -2.8272    2.3310   -0.1469 H   0  0  0  0  0  0  0  0  0  0  0  0
   -4.1176    1.4114    0.6347 H   0  0  0  0  0  0  0  0  0  0  0  0
   -2.4827   -1.7943    0.7890 H   0  0  0  0  0  0  0  0  0  0  0  0
   -4.0550   -1.1118    0.4658 H   0  0  0  0  0  0  0  0  0  0  0  0
   -3.8954   -3.4571   -0.3531 H   0  0  0  0  0  0  0  0  0  0  0  0
   -4.1506   -2.3557   -1.7180 H   0  0  0  0  0  0  0  0  0  0  0  0
   -2.5426   -3.0215   -1.4130 H   0  0  0  0  0  0  0  0  0  0  0  0
  1  2  1  0
  2  3  1  0
  3  4  1  0
  4  5  1  0
  3  6  1  0
  6  7  2  0
  6  8  1  0
  8  9  1  0
  9 10  1  0
 10 11  2  0
 10 12  1  0
 12 13  1  0
 13 14  1  0
 12 15  1  0
 15 16  1  0
  1 17  1  0
  1 18  1  0
  1 19  1  0
  2 20  1  0
  2 21  1  0
  4 22  1  0
  4 23  1  0
  5 24  1  0
  5 25  1  0
  5 26  1  0
 13 27  1  0
 13 28  1  0
 14 29  1  0
 14 30  1  0
 14 31  1  0
 15 32  1  0
 15 33  1  0
 16 34  1  0
 16 35  1  0
 16 36  1  0
M  END
>  <chembl_id>  (1) 
CHEMBL964

>  <max_phase>  (1) 
4

>  <smiles>  (1) 
CCN(CC)C(=S)SSC(=S)N(CC)CC

$$$$
