CHRNA7_encenicline__hybrid_A_face_seed5519_ex32__pose01
     RDKit          3D

 38 41  0  0  0  0  0  0  0  0999 V2000
  142.3780  138.1570   90.8560 O   0  0  0  0  0  0  0  0  0  0  0  0
  142.4210  139.2170   90.3310 C   0  0  0  0  0  0  0  0  0  0  0  0
  141.1920  139.8620   89.9100 N   0  0  0  0  0  0  0  0  0  0  0  0
  139.8970  139.1830   90.1390 C   0  0  1  0  0  0  0  0  0  0  0  0
  138.8240  140.2160   90.5360 C   0  0  0  0  0  0  0  0  0  0  0  0
  137.7480  140.1970   89.6450 N   0  0  0  0  0  0  0  0  0  0  0  0
  137.1850  138.9400   89.6010 C   0  0  0  0  0  0  0  0  0  0  0  0
  138.1800  137.9080   89.1600 C   0  0  0  0  0  0  0  0  0  0  0  0
  139.4580  138.5170   88.9160 C   0  0  0  0  0  0  0  0  0  0  0  0
  139.2960  139.5280   87.8750 C   0  0  0  0  0  0  0  0  0  0  0  0
  138.1960  140.5530   88.3490 C   0  0  0  0  0  0  0  0  0  0  0  0
  143.7760  139.8980   90.1070 C   0  0  0  0  0  0  0  0  0  0  0  0
  144.3340  140.1730   88.9050 C   0  0  0  0  0  0  0  0  0  0  0  0
  145.6140  140.8190   88.8530 C   0  0  0  0  0  0  0  0  0  0  0  0
  146.3090  141.1660   87.7240 C   0  0  0  0  0  0  0  0  0  0  0  0
  147.5510  141.7920   87.8330 C   0  0  0  0  0  0  0  0  0  0  0  0
  148.0900  142.0670   89.1020 C   0  0  0  0  0  0  0  0  0  0  0  0
  147.3850  141.7170   90.2570 C   0  0  0  0  0  0  0  0  0  0  0  0
  148.0730  142.0710   91.8640 Cl  0  0  0  0  0  0  0  0  0  0  0  0
  146.1610  141.1000   90.1530 C   0  0  0  0  0  0  0  0  0  0  0  0
  144.9020  140.4710   91.3030 S   0  0  0  0  0  0  0  0  0  0  0  0
  141.2190  140.7450   89.4750 H   0  0  0  0  0  0  0  0  0  0  0  0
  140.0305  138.4456   90.9443 H   0  0  0  0  0  0  0  0  0  0  0  0
  138.4571  139.9816   91.5462 H   0  0  0  0  0  0  0  0  0  0  0  0
  139.2790  141.2172   90.5103 H   0  0  0  0  0  0  0  0  0  0  0  0
  136.8181  138.6772   90.6042 H   0  0  0  0  0  0  0  0  0  0  0  0
  136.3593  138.9565   88.8743 H   0  0  0  0  0  0  0  0  0  0  0  0
  138.2856  137.1467   89.9469 H   0  0  0  0  0  0  0  0  0  0  0  0
  137.8229  137.4426   88.2295 H   0  0  0  0  0  0  0  0  0  0  0  0
  140.1915  137.7576   88.6074 H   0  0  0  0  0  0  0  0  0  0  0  0
  140.2493  140.0529   87.7144 H   0  0  0  0  0  0  0  0  0  0  0  0
  138.9913  139.0543   86.9301 H   0  0  0  0  0  0  0  0  0  0  0  0
  138.6247  141.5657   88.3742 H   0  0  0  0  0  0  0  0  0  0  0  0
  137.3481  140.5319   87.6486 H   0  0  0  0  0  0  0  0  0  0  0  0
  143.8106  139.9035   87.9758 H   0  0  0  0  0  0  0  0  0  0  0  0
  145.8873  140.9508   86.7311 H   0  0  0  0  0  0  0  0  0  0  0  0
  148.1083  142.0703   86.9264 H   0  0  0  0  0  0  0  0  0  0  0  0
  149.0700  142.5594   89.1862 H   0  0  0  0  0  0  0  0  0  0  0  0
  1  2  2  0
  2  3  1  0
  3  4  1  0
  4  5  1  0
  5  6  1  0
  6  7  1  0
  7  8  1  0
  8  9  1  0
  9 10  1  0
 10 11  1  0
  2 12  1  0
 12 13  2  0
 13 14  1  0
 14 15  2  0
 15 16  1  0
 16 17  2  0
 17 18  1  0
 18 19  1  0
 18 20  2  0
 20 21  1  0
  9  4  1  0
 21 12  1  0
 11  6  1  0
 20 14  1  0
  3 22  1  0
  4 23  1  1
  5 24  1  0
  5 25  1  0
  7 26  1  0
  7 27  1  0
  8 28  1  0
  8 29  1  0
  9 30  1  0
 10 31  1  0
 10 32  1  0
 11 33  1  0
 11 34  1  0
 13 35  1  0
 15 36  1  0
 16 37  1  0
 17 38  1  0
M  END
>  <meeko>  (1)
{"is_sidechain": false}

>  <source_group>  (1)
CHRFAM7A at A face

>  <source_system>  (1)
CHRNA7_encenicline

>  <source_run>  (1)
hybrid_A_face_seed5519_ex32

>  <source_seed>  (1)
5519

>  <vina_pose_rank>  (1)
1

>  <vina_affinity_kcal_mol>  (1)
-7.5140000000000002

>  <vina_rmsd_to_crystal_angstrom>  (1)
4.4775999999999998

$$$$
CHRNA7_encenicline__hybrid_A_face_seed5519_ex32__pose02
     RDKit          3D

 38 41  0  0  0  0  0  0  0  0999 V2000
  142.0330  140.4170   90.9430 O   0  0  0  0  0  0  0  0  0  0  0  0
  142.1710  139.2600   90.7340 C   0  0  0  0  0  0  0  0  0  0  0  0
  141.0270  138.4550   90.3500 N   0  0  0  0  0  0  0  0  0  0  0  0
  139.6970  139.0940   90.2280 C   0  0  1  0  0  0  0  0  0  0  0  0
  139.3940  139.3970   88.7470 C   0  0  0  0  0  0  0  0  0  0  0  0
  138.2230  138.7600   88.3290 N   0  0  0  0  0  0  0  0  0  0  0  0
  137.1570  139.1550   89.1080 C   0  0  0  0  0  0  0  0  0  0  0  0
  137.3830  138.8230   90.5540 C   0  0  0  0  0  0  0  0  0  0  0  0
  138.6620  138.1940   90.7290 C   0  0  0  0  0  0  0  0  0  0  0  0
  138.6880  136.9720   89.9290 C   0  0  0  0  0  0  0  0  0  0  0  0
  138.3820  137.3560   88.4310 C   0  0  0  0  0  0  0  0  0  0  0  0
  143.5600  138.6250   90.8680 C   0  0  0  0  0  0  0  0  0  0  0  0
  143.8130  137.3240   91.1390 C   0  0  0  0  0  0  0  0  0  0  0  0
  145.1720  136.8740   91.2330 C   0  0  0  0  0  0  0  0  0  0  0  0
  145.5940  135.5970   91.4970 C   0  0  0  0  0  0  0  0  0  0  0  0
  146.9580  135.3110   91.5580 C   0  0  0  0  0  0  0  0  0  0  0  0
  147.9000  136.3330   91.3490 C   0  0  0  0  0  0  0  0  0  0  0  0
  147.4770  137.6370   91.0780 C   0  0  0  0  0  0  0  0  0  0  0  0
  148.6770  138.9290   90.8120 Cl  0  0  0  0  0  0  0  0  0  0  0  0
  146.1330  137.9220   91.0180 C   0  0  0  0  0  0  0  0  0  0  0  0
  145.1130  139.3950   90.7110 S   0  0  0  0  0  0  0  0  0  0  0  0
  141.1340  137.4940   90.1720 H   0  0  0  0  0  0  0  0  0  0  0  0
  139.7047  140.0253   90.8133 H   0  0  0  0  0  0  0  0  0  0  0  0
  139.2761  140.4833   88.6201 H   0  0  0  0  0  0  0  0  0  0  0  0
  140.2298  139.0230   88.1375 H   0  0  0  0  0  0  0  0  0  0  0  0
  137.0233  140.2422   89.0070 H   0  0  0  0  0  0  0  0  0  0  0  0
  136.2601  138.6181   88.7655 H   0  0  0  0  0  0  0  0  0  0  0  0
  137.3498  139.7483   91.1479 H   0  0  0  0  0  0  0  0  0  0  0  0
  136.5961  138.1309   90.8885 H   0  0  0  0  0  0  0  0  0  0  0  0
  138.8341  137.9655   91.7912 H   0  0  0  0  0  0  0  0  0  0  0  0
  139.6808  136.5032   89.9977 H   0  0  0  0  0  0  0  0  0  0  0  0
  137.9360  136.2598   90.2994 H   0  0  0  0  0  0  0  0  0  0  0  0
  139.2169  137.0336   87.7915 H   0  0  0  0  0  0  0  0  0  0  0  0
  137.4578  136.8566   88.1047 H   0  0  0  0  0  0  0  0  0  0  0  0
  142.9834  136.6168   91.2861 H   0  0  0  0  0  0  0  0  0  0  0  0
  144.8568  134.7972   91.6609 H   0  0  0  0  0  0  0  0  0  0  0  0
  147.2962  134.2859   91.7696 H   0  0  0  0  0  0  0  0  0  0  0  0
  148.9750  136.1053   91.3990 H   0  0  0  0  0  0  0  0  0  0  0  0
  1  2  2  0
  2  3  1  0
  3  4  1  0
  4  5  1  0
  5  6  1  0
  6  7  1  0
  7  8  1  0
  8  9  1  0
  9 10  1  0
 10 11  1  0
  2 12  1  0
 12 13  2  0
 13 14  1  0
 14 15  2  0
 15 16  1  0
 16 17  2  0
 17 18  1  0
 18 19  1  0
 18 20  2  0
 20 21  1  0
  9  4  1  0
 21 12  1  0
 11  6  1  0
 20 14  1  0
  3 22  1  0
  4 23  1  1
  5 24  1  0
  5 25  1  0
  7 26  1  0
  7 27  1  0
  8 28  1  0
  8 29  1  0
  9 30  1  0
 10 31  1  0
 10 32  1  0
 11 33  1  0
 11 34  1  0
 13 35  1  0
 15 36  1  0
 16 37  1  0
 17 38  1  0
M  END
>  <meeko>  (2)
{"is_sidechain": false}

>  <source_group>  (2)
CHRFAM7A at A face

>  <source_system>  (2)
CHRNA7_encenicline

>  <source_run>  (2)
hybrid_A_face_seed5519_ex32

>  <source_seed>  (2)
5519

>  <vina_pose_rank>  (2)
2

>  <vina_affinity_kcal_mol>  (2)
-7.5099999999999998

>  <vina_rmsd_to_crystal_angstrom>  (2)
2.0230999999999999

$$$$
CHRNA7_encenicline__hybrid_A_face_seed5519_ex32__pose03
     RDKit          3D

 38 41  0  0  0  0  0  0  0  0999 V2000
  142.8600  138.9650   91.1850 O   0  0  0  0  0  0  0  0  0  0  0  0
  142.7260  139.5530   90.1660 C   0  0  0  0  0  0  0  0  0  0  0  0
  141.3970  139.7660   89.6260 N   0  0  0  0  0  0  0  0  0  0  0  0
  140.2210  139.2410   90.3560 C   0  0  1  0  0  0  0  0  0  0  0  0
  139.1870  140.3640   90.5640 C   0  0  0  0  0  0  0  0  0  0  0  0
  137.9570  140.0320   89.9920 N   0  0  0  0  0  0  0  0  0  0  0  0
  137.4780  138.8580   90.5310 C   0  0  0  0  0  0  0  0  0  0  0  0
  138.4280  137.7210   90.2980 C   0  0  0  0  0  0  0  0  0  0  0  0
  139.5880  138.1750   89.5840 C   0  0  0  0  0  0  0  0  0  0  0  0
  139.1540  138.7310   88.3050 C   0  0  0  0  0  0  0  0  0  0  0  0
  138.1100  139.8750   88.5920 C   0  0  0  0  0  0  0  0  0  0  0  0
  143.9610  140.0860   89.4310 C   0  0  0  0  0  0  0  0  0  0  0  0
  145.0040  140.7330   90.0010 C   0  0  0  0  0  0  0  0  0  0  0  0
  146.0950  141.1740   89.1810 C   0  0  0  0  0  0  0  0  0  0  0  0
  147.2180  141.8360   89.6010 C   0  0  0  0  0  0  0  0  0  0  0  0
  148.1990  142.2030   88.6790 C   0  0  0  0  0  0  0  0  0  0  0  0
  148.0350  141.8940   87.3180 C   0  0  0  0  0  0  0  0  0  0  0  0
  146.8910  141.2170   86.8830 C   0  0  0  0  0  0  0  0  0  0  0  0
  146.6900  140.8260   85.1550 Cl  0  0  0  0  0  0  0  0  0  0  0  0
  145.9240  140.8550   87.7890 C   0  0  0  0  0  0  0  0  0  0  0  0
  144.3220  139.9980   87.7300 S   0  0  0  0  0  0  0  0  0  0  0  0
  141.2780  140.2560   88.7810 H   0  0  0  0  0  0  0  0  0  0  0  0
  140.5609  138.8534   91.3277 H   0  0  0  0  0  0  0  0  0  0  0  0
  139.0481  140.5282   91.6428 H   0  0  0  0  0  0  0  0  0  0  0  0
  139.5619  141.2764   90.0772 H   0  0  0  0  0  0  0  0  0  0  0  0
  137.3389  138.9920   91.6139 H   0  0  0  0  0  0  0  0  0  0  0  0
  136.5228  138.6168   90.0416 H   0  0  0  0  0  0  0  0  0  0  0  0
  138.7393  137.3045   91.2674 H   0  0  0  0  0  0  0  0  0  0  0  0
  137.9207  136.9496   89.7000 H   0  0  0  0  0  0  0  0  0  0  0  0
  140.2909  137.3436   89.4268 H   0  0  0  0  0  0  0  0  0  0  0  0
  140.0195  139.1439   87.7660 H   0  0  0  0  0  0  0  0  0  0  0  0
  138.6953  137.9456   87.6864 H   0  0  0  0  0  0  0  0  0  0  0  0
  138.4691  140.8180   88.1540 H   0  0  0  0  0  0  0  0  0  0  0  0
  137.1412  139.6092   88.1440 H   0  0  0  0  0  0  0  0  0  0  0  0
  145.0150  140.9193   91.0851 H   0  0  0  0  0  0  0  0  0  0  0  0
  147.3467  142.0786   90.6662 H   0  0  0  0  0  0  0  0  0  0  0  0
  149.1008  142.7342   89.0176 H   0  0  0  0  0  0  0  0  0  0  0  0
  148.8087  142.1855   86.5925 H   0  0  0  0  0  0  0  0  0  0  0  0
  1  2  2  0
  2  3  1  0
  3  4  1  0
  4  5  1  0
  5  6  1  0
  6  7  1  0
  7  8  1  0
  8  9  1  0
  9 10  1  0
 10 11  1  0
  2 12  1  0
 12 13  2  0
 13 14  1  0
 14 15  2  0
 15 16  1  0
 16 17  2  0
 17 18  1  0
 18 19  1  0
 18 20  2  0
 20 21  1  0
  9  4  1  0
 21 12  1  0
 11  6  1  0
 20 14  1  0
  3 22  1  0
  4 23  1  1
  5 24  1  0
  5 25  1  0
  7 26  1  0
  7 27  1  0
  8 28  1  0
  8 29  1  0
  9 30  1  0
 10 31  1  0
 10 32  1  0
 11 33  1  0
 11 34  1  0
 13 35  1  0
 15 36  1  0
 16 37  1  0
 17 38  1  0
M  END
>  <meeko>  (3)
{"is_sidechain": false}

>  <source_group>  (3)
CHRFAM7A at A face

>  <source_system>  (3)
CHRNA7_encenicline

>  <source_run>  (3)
hybrid_A_face_seed5519_ex32

>  <source_seed>  (3)
5519

>  <vina_pose_rank>  (3)
3

>  <vina_affinity_kcal_mol>  (3)
-7.3769999999999998

>  <vina_rmsd_to_crystal_angstrom>  (3)
4.9252000000000002

$$$$
CHRNA7_encenicline__hybrid_A_face_seed5519_ex32__pose04
     RDKit          3D

 38 41  0  0  0  0  0  0  0  0999 V2000
  142.1840  140.1940   90.7800 O   0  0  0  0  0  0  0  0  0  0  0  0
  142.2130  139.0190   90.6330 C   0  0  0  0  0  0  0  0  0  0  0  0
  140.9860  138.2970   90.3580 N   0  0  0  0  0  0  0  0  0  0  0  0
  139.7080  139.0400   90.2680 C   0  0  1  0  0  0  0  0  0  0  0  0
  139.4300  139.4320   88.8030 C   0  0  0  0  0  0  0  0  0  0  0  0
  138.2140  138.9060   88.3610 N   0  0  0  0  0  0  0  0  0  0  0  0
  137.1820  139.3460   89.1600 C   0  0  0  0  0  0  0  0  0  0  0  0
  137.3810  138.9340   90.5890 C   0  0  0  0  0  0  0  0  0  0  0  0
  138.6080  138.2010   90.7320 C   0  0  0  0  0  0  0  0  0  0  0  0
  138.5400  137.0180   89.8780 C   0  0  0  0  0  0  0  0  0  0  0  0
  138.2650  137.4910   88.4000 C   0  0  0  0  0  0  0  0  0  0  0  0
  143.5500  138.2750   90.7310 C   0  0  0  0  0  0  0  0  0  0  0  0
  144.7610  138.7770   90.3950 C   0  0  0  0  0  0  0  0  0  0  0  0
  145.9300  137.9580   90.5450 C   0  0  0  0  0  0  0  0  0  0  0  0
  147.2200  138.3140   90.2530 C   0  0  0  0  0  0  0  0  0  0  0  0
  148.2580  137.4030   90.4510 C   0  0  0  0  0  0  0  0  0  0  0  0
  147.9800  136.1180   90.9480 C   0  0  0  0  0  0  0  0  0  0  0  0
  146.6650  135.7480   91.2480 C   0  0  0  0  0  0  0  0  0  0  0  0
  146.3190  134.1180   91.8810 Cl  0  0  0  0  0  0  0  0  0  0  0  0
  145.6410  136.6440   91.0550 C   0  0  0  0  0  0  0  0  0  0  0  0
  143.8370  136.6490   91.2820 S   0  0  0  0  0  0  0  0  0  0  0  0
  141.0020  137.3210   90.2320 H   0  0  0  0  0  0  0  0  0  0  0  0
  139.7860  139.9411   90.8941 H   0  0  0  0  0  0  0  0  0  0  0  0
  139.3958  140.5287   88.7254 H   0  0  0  0  0  0  0  0  0  0  0  0
  140.2350  139.0234   88.1745 H   0  0  0  0  0  0  0  0  0  0  0  0
  137.1321  140.4436   89.1078 H   0  0  0  0  0  0  0  0  0  0  0  0
  136.2469  138.8946   88.7969 H   0  0  0  0  0  0  0  0  0  0  0  0
  137.4191  139.8319   91.2233 H   0  0  0  0  0  0  0  0  0  0  0  0
  136.5430  138.2906   90.8951 H   0  0  0  0  0  0  0  0  0  0  0  0
  138.7620  137.9125   91.7823 H   0  0  0  0  0  0  0  0  0  0  0  0
  139.4937  136.4716   89.9225 H   0  0  0  0  0  0  0  0  0  0  0  0
  137.7351  136.3500   90.2185 H   0  0  0  0  0  0  0  0  0  0  0  0
  139.0730  137.1346   87.7442 H   0  0  0  0  0  0  0  0  0  0  0  0
  137.3053  137.0789   88.0547 H   0  0  0  0  0  0  0  0  0  0  0  0
  144.8486  139.8038   90.0103 H   0  0  0  0  0  0  0  0  0  0  0  0
  147.4378  139.3189   89.8621 H   0  0  0  0  0  0  0  0  0  0  0  0
  149.2939  137.6904   90.2181 H   0  0  0  0  0  0  0  0  0  0  0  0
  148.7997  135.4007   91.1016 H   0  0  0  0  0  0  0  0  0  0  0  0
  1  2  2  0
  2  3  1  0
  3  4  1  0
  4  5  1  0
  5  6  1  0
  6  7  1  0
  7  8  1  0
  8  9  1  0
  9 10  1  0
 10 11  1  0
  2 12  1  0
 12 13  2  0
 13 14  1  0
 14 15  2  0
 15 16  1  0
 16 17  2  0
 17 18  1  0
 18 19  1  0
 18 20  2  0
 20 21  1  0
  9  4  1  0
 21 12  1  0
 11  6  1  0
 20 14  1  0
  3 22  1  0
  4 23  1  1
  5 24  1  0
  5 25  1  0
  7 26  1  0
  7 27  1  0
  8 28  1  0
  8 29  1  0
  9 30  1  0
 10 31  1  0
 10 32  1  0
 11 33  1  0
 11 34  1  0
 13 35  1  0
 15 36  1  0
 16 37  1  0
 17 38  1  0
M  END
>  <meeko>  (4)
{"is_sidechain": false}

>  <source_group>  (4)
CHRFAM7A at A face

>  <source_system>  (4)
CHRNA7_encenicline

>  <source_run>  (4)
hybrid_A_face_seed5519_ex32

>  <source_seed>  (4)
5519

>  <vina_pose_rank>  (4)
4

>  <vina_affinity_kcal_mol>  (4)
-7.3250000000000002

>  <vina_rmsd_to_crystal_angstrom>  (4)
2.5276000000000001

$$$$
CHRNA7_encenicline__hybrid_A_face_seed5519_ex32__pose05
     RDKit          3D

 38 41  0  0  0  0  0  0  0  0999 V2000
  144.7380  139.7220   91.3810 O   0  0  0  0  0  0  0  0  0  0  0  0
  144.2290  138.6640   91.2270 C   0  0  0  0  0  0  0  0  0  0  0  0
  145.0040  137.4550   91.4310 N   0  0  0  0  0  0  0  0  0  0  0  0
  146.4270  137.5610   91.8260 C   0  0  1  0  0  0  0  0  0  0  0  0
  146.8660  136.2770   92.5570 C   0  0  0  0  0  0  0  0  0  0  0  0
  147.9380  135.6630   91.9040 N   0  0  0  0  0  0  0  0  0  0  0  0
  149.0040  136.5300   91.8140 C   0  0  0  0  0  0  0  0  0  0  0  0
  148.6390  137.7710   91.0550 C   0  0  0  0  0  0  0  0  0  0  0  0
  147.2640  137.7190   90.6400 C   0  0  0  0  0  0  0  0  0  0  0  0
  147.0840  136.5450   89.7900 C   0  0  0  0  0  0  0  0  0  0  0  0
  147.5410  135.2730   90.6010 C   0  0  0  0  0  0  0  0  0  0  0  0
  142.7540  138.5840   90.8190 C   0  0  0  0  0  0  0  0  0  0  0  0
  141.9960  137.4630   90.8030 C   0  0  0  0  0  0  0  0  0  0  0  0
  140.6220  137.5450   90.3970 C   0  0  0  0  0  0  0  0  0  0  0  0
  139.7270  136.5110   90.3290 C   0  0  0  0  0  0  0  0  0  0  0  0
  138.4170  136.7470   89.9110 C   0  0  0  0  0  0  0  0  0  0  0  0
  138.0150  138.0470   89.5590 C   0  0  0  0  0  0  0  0  0  0  0  0
  138.9240  139.1080   89.6270 C   0  0  0  0  0  0  0  0  0  0  0  0
  138.4080  140.7550   89.1820 Cl  0  0  0  0  0  0  0  0  0  0  0  0
  140.2150  138.8770   90.0380 C   0  0  0  0  0  0  0  0  0  0  0  0
  141.7140  139.8750   90.2870 S   0  0  0  0  0  0  0  0  0  0  0  0
  144.5870  136.5720   91.3080 H   0  0  0  0  0  0  0  0  0  0  0  0
  146.5398  138.4325   92.4877 H   0  0  0  0  0  0  0  0  0  0  0  0
  147.1707  136.5345   93.5821 H   0  0  0  0  0  0  0  0  0  0  0  0
  146.0182  135.5762   92.5678 H   0  0  0  0  0  0  0  0  0  0  0  0
  149.3224  136.8119   92.8285 H   0  0  0  0  0  0  0  0  0  0  0  0
  149.8179  136.0224   91.2756 H   0  0  0  0  0  0  0  0  0  0  0  0
  148.7895  138.6484   91.7012 H   0  0  0  0  0  0  0  0  0  0  0  0
  149.2782  137.8442   90.1628 H   0  0  0  0  0  0  0  0  0  0  0  0
  146.9916  138.6358   90.0967 H   0  0  0  0  0  0  0  0  0  0  0  0
  146.0247  136.4471   89.5102 H   0  0  0  0  0  0  0  0  0  0  0  0
  147.6829  136.6454   88.8728 H   0  0  0  0  0  0  0  0  0  0  0  0
  146.7048  134.5616   90.6697 H   0  0  0  0  0  0  0  0  0  0  0  0
  148.3875  134.7942   90.0870 H   0  0  0  0  0  0  0  0  0  0  0  0
  142.4297  136.4964   91.0989 H   0  0  0  0  0  0  0  0  0  0  0  0
  140.0411  135.4934   90.6042 H   0  0  0  0  0  0  0  0  0  0  0  0
  137.6988  135.9156   89.8569 H   0  0  0  0  0  0  0  0  0  0  0  0
  136.9819  138.2307   89.2289 H   0  0  0  0  0  0  0  0  0  0  0  0
  1  2  2  0
  2  3  1  0
  3  4  1  0
  4  5  1  0
  5  6  1  0
  6  7  1  0
  7  8  1  0
  8  9  1  0
  9 10  1  0
 10 11  1  0
  2 12  1  0
 12 13  2  0
 13 14  1  0
 14 15  2  0
 15 16  1  0
 16 17  2  0
 17 18  1  0
 18 19  1  0
 18 20  2  0
 20 21  1  0
  9  4  1  0
 21 12  1  0
 11  6  1  0
 20 14  1  0
  3 22  1  0
  4 23  1  1
  5 24  1  0
  5 25  1  0
  7 26  1  0
  7 27  1  0
  8 28  1  0
  8 29  1  0
  9 30  1  0
 10 31  1  0
 10 32  1  0
 11 33  1  0
 11 34  1  0
 13 35  1  0
 15 36  1  0
 16 37  1  0
 17 38  1  0
M  END
>  <meeko>  (5)
{"is_sidechain": false}

>  <source_group>  (5)
CHRFAM7A at A face

>  <source_system>  (5)
CHRNA7_encenicline

>  <source_run>  (5)
hybrid_A_face_seed5519_ex32

>  <source_seed>  (5)
5519

>  <vina_pose_rank>  (5)
5

>  <vina_affinity_kcal_mol>  (5)
-6.5419999999999998

>  <vina_rmsd_to_crystal_angstrom>  (5)
7.6477000000000004

$$$$
CHRNA7_encenicline__hybrid_A_face_seed5519_ex32__pose06
     RDKit          3D

 38 41  0  0  0  0  0  0  0  0999 V2000
  142.1960  137.9690   90.8140 O   0  0  0  0  0  0  0  0  0  0  0  0
  142.2660  139.1310   90.5980 C   0  0  0  0  0  0  0  0  0  0  0  0
  141.0630  139.8780   90.2820 N   0  0  0  0  0  0  0  0  0  0  0  0
  139.7620  139.1750   90.2300 C   0  0  1  0  0  0  0  0  0  0  0  0
  138.6210  140.1550   90.5690 C   0  0  0  0  0  0  0  0  0  0  0  0
  137.6960  140.2340   89.5250 N   0  0  0  0  0  0  0  0  0  0  0  0
  137.1700  138.9900   89.2540 C   0  0  0  0  0  0  0  0  0  0  0  0
  138.2410  138.0170   88.8600 C   0  0  0  0  0  0  0  0  0  0  0  0
  139.5300  138.6510   88.8870 C   0  0  0  0  0  0  0  0  0  0  0  0
  139.5100  139.7740   87.9530 C   0  0  0  0  0  0  0  0  0  0  0  0
  138.3310  140.7370   88.3620 C   0  0  0  0  0  0  0  0  0  0  0  0
  143.6260  139.8340   90.6590 C   0  0  0  0  0  0  0  0  0  0  0  0
  144.2810  140.1950   91.7870 C   0  0  0  0  0  0  0  0  0  0  0  0
  145.5550  140.8470   91.6860 C   0  0  0  0  0  0  0  0  0  0  0  0
  146.3410  141.2720   92.7250 C   0  0  0  0  0  0  0  0  0  0  0  0
  147.5620  141.8950   92.4670 C   0  0  0  0  0  0  0  0  0  0  0  0
  147.9870  142.0890   91.1420 C   0  0  0  0  0  0  0  0  0  0  0  0
  147.1900  141.6570   90.0770 C   0  0  0  0  0  0  0  0  0  0  0  0
  147.7350  141.9030   88.3970 Cl  0  0  0  0  0  0  0  0  0  0  0  0
  145.9860  141.0420   90.3280 C   0  0  0  0  0  0  0  0  0  0  0  0
  144.6410  140.3290   89.3340 S   0  0  0  0  0  0  0  0  0  0  0  0
  141.1120  140.8450   90.1040 H   0  0  0  0  0  0  0  0  0  0  0  0
  139.7836  138.3511   90.9585 H   0  0  0  0  0  0  0  0  0  0  0  0
  138.1077  139.8075   91.4777 H   0  0  0  0  0  0  0  0  0  0  0  0
  139.0547  141.1536   90.7264 H   0  0  0  0  0  0  0  0  0  0  0  0
  136.6581  138.6144   90.1523 H   0  0  0  0  0  0  0  0  0  0  0  0
  136.4652  139.0874   88.4151 H   0  0  0  0  0  0  0  0  0  0  0  0
  138.2385  137.1712   89.5633 H   0  0  0  0  0  0  0  0  0  0  0  0
  138.0405  137.6608   87.8388 H   0  0  0  0  0  0  0  0  0  0  0  0
  140.3169  137.9328   88.6133 H   0  0  0  0  0  0  0  0  0  0  0  0
  140.4663  140.3153   88.0017 H   0  0  0  0  0  0  0  0  0  0  0  0
  139.3628  139.4098   86.9255 H   0  0  0  0  0  0  0  0  0  0  0  0
  138.7311  141.7409   88.5671 H   0  0  0  0  0  0  0  0  0  0  0  0
  137.6017  140.7954   87.5406 H   0  0  0  0  0  0  0  0  0  0  0  0
  143.8400  139.9901   92.7737 H   0  0  0  0  0  0  0  0  0  0  0  0
  146.0089  141.1218   93.7628 H   0  0  0  0  0  0  0  0  0  0  0  0
  148.1927  142.2347   93.3017 H   0  0  0  0  0  0  0  0  0  0  0  0
  148.9496  142.5822   90.9416 H   0  0  0  0  0  0  0  0  0  0  0  0
  1  2  2  0
  2  3  1  0
  3  4  1  0
  4  5  1  0
  5  6  1  0
  6  7  1  0
  7  8  1  0
  8  9  1  0
  9 10  1  0
 10 11  1  0
  2 12  1  0
 12 13  2  0
 13 14  1  0
 14 15  2  0
 15 16  1  0
 16 17  2  0
 17 18  1  0
 18 19  1  0
 18 20  2  0
 20 21  1  0
  9  4  1  0
 21 12  1  0
 11  6  1  0
 20 14  1  0
  3 22  1  0
  4 23  1  1
  5 24  1  0
  5 25  1  0
  7 26  1  0
  7 27  1  0
  8 28  1  0
  8 29  1  0
  9 30  1  0
 10 31  1  0
 10 32  1  0
 11 33  1  0
 11 34  1  0
 13 35  1  0
 15 36  1  0
 16 37  1  0
 17 38  1  0
M  END
>  <meeko>  (6)
{"is_sidechain": false}

>  <source_group>  (6)
CHRFAM7A at A face

>  <source_system>  (6)
CHRNA7_encenicline

>  <source_run>  (6)
hybrid_A_face_seed5519_ex32

>  <source_seed>  (6)
5519

>  <vina_pose_rank>  (6)
6

>  <vina_affinity_kcal_mol>  (6)
-6.4349999999999996

>  <vina_rmsd_to_crystal_angstrom>  (6)
4.2782

$$$$
CHRNA7_encenicline__hybrid_A_face_seed5519_ex32__pose07
     RDKit          3D

 38 41  0  0  0  0  0  0  0  0999 V2000
  144.4560  140.2350   90.4930 O   0  0  0  0  0  0  0  0  0  0  0  0
  144.0910  139.1150   90.6170 C   0  0  0  0  0  0  0  0  0  0  0  0
  145.0590  138.0680   90.8820 N   0  0  0  0  0  0  0  0  0  0  0  0
  146.4950  138.4140   90.9900 C   0  0  1  0  0  0  0  0  0  0  0  0
  147.1590  137.5610   92.0890 C   0  0  0  0  0  0  0  0  0  0  0  0
  148.2170  136.8070   91.5740 N   0  0  0  0  0  0  0  0  0  0  0  0
  149.1580  137.6330   90.9990 C   0  0  0  0  0  0  0  0  0  0  0  0
  148.5680  138.4400   89.8810 C   0  0  0  0  0  0  0  0  0  0  0  0
  147.1720  138.1380   89.7270 C   0  0  0  0  0  0  0  0  0  0  0  0
  147.0390  136.7130   89.4350 C   0  0  0  0  0  0  0  0  0  0  0  0
  147.7280  135.9040   90.5980 C   0  0  0  0  0  0  0  0  0  0  0  0
  142.5990  138.7860   90.5000 C   0  0  0  0  0  0  0  0  0  0  0  0
  141.6150  139.6670   90.2040 C   0  0  0  0  0  0  0  0  0  0  0  0
  140.2570  139.2080   90.1270 C   0  0  0  0  0  0  0  0  0  0  0  0
  139.1540  139.9670   89.8380 C   0  0  0  0  0  0  0  0  0  0  0  0
  137.8910  139.3760   89.8010 C   0  0  0  0  0  0  0  0  0  0  0  0
  137.7490  138.0020   90.0590 C   0  0  0  0  0  0  0  0  0  0  0  0
  138.8720  137.2220   90.3530 C   0  0  0  0  0  0  0  0  0  0  0  0
  138.6870  135.4790   90.6780 Cl  0  0  0  0  0  0  0  0  0  0  0  0
  140.1170  137.8010   90.3910 C   0  0  0  0  0  0  0  0  0  0  0  0
  141.8180  137.2450   90.7120 S   0  0  0  0  0  0  0  0  0  0  0  0
  144.7640  137.1350   90.9880 H   0  0  0  0  0  0  0  0  0  0  0  0
  146.5770  139.4828   91.2369 H   0  0  0  0  0  0  0  0  0  0  0  0
  147.5426  138.2262   92.8767 H   0  0  0  0  0  0  0  0  0  0  0  0
  146.4057  136.8708   92.4967 H   0  0  0  0  0  0  0  0  0  0  0  0
  149.5501  138.3171   91.7660 H   0  0  0  0  0  0  0  0  0  0  0  0
  149.9626  137.0065   90.5865 H   0  0  0  0  0  0  0  0  0  0  0  0
  148.6844  139.5104   90.1062 H   0  0  0  0  0  0  0  0  0  0  0  0
  149.0919  138.1908   88.9464 H   0  0  0  0  0  0  0  0  0  0  0  0
  146.7354  138.7416   88.9176 H   0  0  0  0  0  0  0  0  0  0  0  0
  145.9743  136.4434   89.3743 H   0  0  0  0  0  0  0  0  0  0  0  0
  147.5177  136.4766   88.4733 H   0  0  0  0  0  0  0  0  0  0  0  0
  146.9937  135.2273   91.0593 H   0  0  0  0  0  0  0  0  0  0  0  0
  148.5632  135.3151   90.1911 H   0  0  0  0  0  0  0  0  0  0  0  0
  141.8538  140.7256   90.0240 H   0  0  0  0  0  0  0  0  0  0  0  0
  139.2642  141.0425   89.6351 H   0  0  0  0  0  0  0  0  0  0  0  0
  137.0054  139.9861   89.5697 H   0  0  0  0  0  0  0  0  0  0  0  0
  136.7518  137.5386   90.0296 H   0  0  0  0  0  0  0  0  0  0  0  0
  1  2  2  0
  2  3  1  0
  3  4  1  0
  4  5  1  0
  5  6  1  0
  6  7  1  0
  7  8  1  0
  8  9  1  0
  9 10  1  0
 10 11  1  0
  2 12  1  0
 12 13  2  0
 13 14  1  0
 14 15  2  0
 15 16  1  0
 16 17  2  0
 17 18  1  0
 18 19  1  0
 18 20  2  0
 20 21  1  0
  9  4  1  0
 21 12  1  0
 11  6  1  0
 20 14  1  0
  3 22  1  0
  4 23  1  1
  5 24  1  0
  5 25  1  0
  7 26  1  0
  7 27  1  0
  8 28  1  0
  8 29  1  0
  9 30  1  0
 10 31  1  0
 10 32  1  0
 11 33  1  0
 11 34  1  0
 13 35  1  0
 15 36  1  0
 16 37  1  0
 17 38  1  0
M  END
>  <meeko>  (7)
{"is_sidechain": false}

>  <source_group>  (7)
CHRFAM7A at A face

>  <source_system>  (7)
CHRNA7_encenicline

>  <source_run>  (7)
hybrid_A_face_seed5519_ex32

>  <source_seed>  (7)
5519

>  <vina_pose_rank>  (7)
7

>  <vina_affinity_kcal_mol>  (7)
-6.3860000000000001

>  <vina_rmsd_to_crystal_angstrom>  (7)
7.5778999999999996

$$$$
CHRNA7_encenicline__hybrid_A_face_seed5519_ex32__pose08
     RDKit          3D

 38 41  0  0  0  0  0  0  0  0999 V2000
  144.3910  142.0070   92.6790 O   0  0  0  0  0  0  0  0  0  0  0  0
  143.9540  141.0470   93.2180 C   0  0  0  0  0  0  0  0  0  0  0  0
  142.8920  141.1890   94.1940 N   0  0  0  0  0  0  0  0  0  0  0  0
  142.3670  142.5380   94.5080 C   0  0  1  0  0  0  0  0  0  0  0  0
  140.8570  142.5980   94.2060 C   0  0  0  0  0  0  0  0  0  0  0  0
  140.1260  142.9400   95.3460 N   0  0  0  0  0  0  0  0  0  0  0  0
  140.5460  144.1560   95.8390 C   0  0  0  0  0  0  0  0  0  0  0  0
  142.0010  144.1250   96.2040 C   0  0  0  0  0  0  0  0  0  0  0  0
  142.5610  142.8330   95.9250 C   0  0  0  0  0  0  0  0  0  0  0  0
  141.8310  141.8360   96.7050 C   0  0  0  0  0  0  0  0  0  0  0  0
  140.3020  141.9470   96.3410 C   0  0  0  0  0  0  0  0  0  0  0  0
  144.5160  139.6630   92.8730 C   0  0  0  0  0  0  0  0  0  0  0  0
  143.7850  138.5610   92.5860 C   0  0  0  0  0  0  0  0  0  0  0  0
  144.4550  137.3300   92.2790 C   0  0  0  0  0  0  0  0  0  0  0  0
  143.8640  136.1340   91.9680 C   0  0  0  0  0  0  0  0  0  0  0  0
  144.6530  135.0160   91.6930 C   0  0  0  0  0  0  0  0  0  0  0  0
  146.0540  135.1170   91.7350 C   0  0  0  0  0  0  0  0  0  0  0  0
  146.6630  136.3350   92.0520 C   0  0  0  0  0  0  0  0  0  0  0  0
  148.4410  136.4580   92.1030 Cl  0  0  0  0  0  0  0  0  0  0  0  0
  145.8890  137.4370   92.3230 C   0  0  0  0  0  0  0  0  0  0  0  0
  146.1840  139.1750   92.7680 S   0  0  0  0  0  0  0  0  0  0  0  0
  142.5220  140.3960   94.6440 H   0  0  0  0  0  0  0  0  0  0  0  0
  142.9068  143.2720   93.8917 H   0  0  0  0  0  0  0  0  0  0  0  0
  140.6771  143.3517   93.4252 H   0  0  0  0  0  0  0  0  0  0  0  0
  140.5300  141.6034   93.8685 H   0  0  0  0  0  0  0  0  0  0  0  0
  140.3857  144.9280   95.0720 H   0  0  0  0  0  0  0  0  0  0  0  0
  139.9660  144.3811   96.7461 H   0  0  0  0  0  0  0  0  0  0  0  0
  142.5375  144.8863   95.6187 H   0  0  0  0  0  0  0  0  0  0  0  0
  142.1029  144.3327   97.2794 H   0  0  0  0  0  0  0  0  0  0  0  0
  143.6313  142.8165   96.1785 H   0  0  0  0  0  0  0  0  0  0  0  0
  142.1997  140.8290   96.4600 H   0  0  0  0  0  0  0  0  0  0  0  0
  141.9787  142.0132   97.7805 H   0  0  0  0  0  0  0  0  0  0  0  0
  139.9441  140.9789   95.9607 H   0  0  0  0  0  0  0  0  0  0  0  0
  139.7295  142.2214   97.2393 H   0  0  0  0  0  0  0  0  0  0  0  0
  142.6860  138.6086   92.5880 H   0  0  0  0  0  0  0  0  0  0  0  0
  142.7674  136.0547   91.9350 H   0  0  0  0  0  0  0  0  0  0  0  0
  144.1781  134.0557   91.4434 H   0  0  0  0  0  0  0  0  0  0  0  0
  146.6738  134.2346   91.5177 H   0  0  0  0  0  0  0  0  0  0  0  0
  1  2  2  0
  2  3  1  0
  3  4  1  0
  4  5  1  0
  5  6  1  0
  6  7  1  0
  7  8  1  0
  8  9  1  0
  9 10  1  0
 10 11  1  0
  2 12  1  0
 12 13  2  0
 13 14  1  0
 14 15  2  0
 15 16  1  0
 16 17  2  0
 17 18  1  0
 18 19  1  0
 18 20  2  0
 20 21  1  0
  9  4  1  0
 21 12  1  0
 11  6  1  0
 20 14  1  0
  3 22  1  0
  4 23  1  6
  5 24  1  0
  5 25  1  0
  7 26  1  0
  7 27  1  0
  8 28  1  0
  8 29  1  0
  9 30  1  0
 10 31  1  0
 10 32  1  0
 11 33  1  0
 11 34  1  0
 13 35  1  0
 15 36  1  0
 16 37  1  0
 17 38  1  0
M  END
>  <meeko>  (8)
{"is_sidechain": false}

>  <source_group>  (8)
CHRFAM7A at A face

>  <source_system>  (8)
CHRNA7_encenicline

>  <source_run>  (8)
hybrid_A_face_seed5519_ex32

>  <source_seed>  (8)
5519

>  <vina_pose_rank>  (8)
8

>  <vina_affinity_kcal_mol>  (8)
-6.3230000000000004

>  <vina_rmsd_to_crystal_angstrom>  (8)
4.8658999999999999

$$$$
CHRNA7_encenicline__hybrid_A_face_seed5519_ex32__pose09
     RDKit          3D

 38 41  0  0  0  0  0  0  0  0999 V2000
  146.2890  140.4970   92.5580 O   0  0  0  0  0  0  0  0  0  0  0  0
  145.2070  140.0200   92.4870 C   0  0  0  0  0  0  0  0  0  0  0  0
  145.0300  138.7240   91.8610 N   0  0  0  0  0  0  0  0  0  0  0  0
  146.2080  138.0130   91.3140 C   0  0  1  0  0  0  0  0  0  0  0  0
  146.7460  137.0100   92.3540 C   0  0  0  0  0  0  0  0  0  0  0  0
  146.7460  135.7080   91.8480 N   0  0  0  0  0  0  0  0  0  0  0  0
  147.5080  135.6380   90.7020 C   0  0  0  0  0  0  0  0  0  0  0  0
  146.9830  136.5570   89.6380 C   0  0  0  0  0  0  0  0  0  0  0  0
  145.8310  137.2700   90.1150 C   0  0  0  0  0  0  0  0  0  0  0  0
  144.8060  136.2960   90.4820 C   0  0  0  0  0  0  0  0  0  0  0  0
  145.4180  135.3120   91.5500 C   0  0  0  0  0  0  0  0  0  0  0  0
  144.0050  140.7790   93.0620 C   0  0  0  0  0  0  0  0  0  0  0  0
  142.9150  141.1770   92.3670 C   0  0  0  0  0  0  0  0  0  0  0  0
  141.8630  141.8800   93.0450 C   0  0  0  0  0  0  0  0  0  0  0  0
  140.7010  142.3460   92.4900 C   0  0  0  0  0  0  0  0  0  0  0  0
  139.7680  143.0160   93.2820 C   0  0  0  0  0  0  0  0  0  0  0  0
  140.0210  143.2140   94.6500 C   0  0  0  0  0  0  0  0  0  0  0  0
  141.2050  142.7390   95.2230 C   0  0  0  0  0  0  0  0  0  0  0  0
  141.5190  142.9910   96.9600 Cl  0  0  0  0  0  0  0  0  0  0  0  0
  142.1250  142.0790   94.4450 C   0  0  0  0  0  0  0  0  0  0  0  0
  143.7490  141.3020   94.7020 S   0  0  0  0  0  0  0  0  0  0  0  0
  144.1350  138.3200   91.8000 H   0  0  0  0  0  0  0  0  0  0  0  0
  146.9803  138.7573   91.0699 H   0  0  0  0  0  0  0  0  0  0  0  0
  147.7750  137.2901   92.6235 H   0  0  0  0  0  0  0  0  0  0  0  0
  146.0915  137.0400   93.2376 H   0  0  0  0  0  0  0  0  0  0  0  0
  148.5428  135.9231   90.9424 H   0  0  0  0  0  0  0  0  0  0  0  0
  147.4656  134.6071   90.3206 H   0  0  0  0  0  0  0  0  0  0  0  0
  147.7670  137.2779   89.3628 H   0  0  0  0  0  0  0  0  0  0  0  0
  146.6942  135.9590   88.7611 H   0  0  0  0  0  0  0  0  0  0  0  0
  145.4557  137.9547   89.3402 H   0  0  0  0  0  0  0  0  0  0  0  0
  143.9359  136.8152   90.9102 H   0  0  0  0  0  0  0  0  0  0  0  0
  144.4802  135.7356   89.5933 H   0  0  0  0  0  0  0  0  0  0  0  0
  144.8114  135.3423   92.4671 H   0  0  0  0  0  0  0  0  0  0  0  0
  145.4212  134.2883   91.1474 H   0  0  0  0  0  0  0  0  0  0  0  0
  142.8353  140.9637   91.2908 H   0  0  0  0  0  0  0  0  0  0  0  0
  140.5031  142.1919   91.4190 H   0  0  0  0  0  0  0  0  0  0  0  0
  138.8345  143.3892   92.8356 H   0  0  0  0  0  0  0  0  0  0  0  0
  139.2852  143.7444   95.2723 H   0  0  0  0  0  0  0  0  0  0  0  0
  1  2  2  0
  2  3  1  0
  3  4  1  0
  4  5  1  0
  5  6  1  0
  6  7  1  0
  7  8  1  0
  8  9  1  0
  9 10  1  0
 10 11  1  0
  2 12  1  0
 12 13  2  0
 13 14  1  0
 14 15  2  0
 15 16  1  0
 16 17  2  0
 17 18  1  0
 18 19  1  0
 18 20  2  0
 20 21  1  0
  9  4  1  0
 21 12  1  0
 11  6  1  0
 20 14  1  0
  3 22  1  0
  4 23  1  6
  5 24  1  0
  5 25  1  0
  7 26  1  0
  7 27  1  0
  8 28  1  0
  8 29  1  0
  9 30  1  0
 10 31  1  0
 10 32  1  0
 11 33  1  0
 11 34  1  0
 13 35  1  0
 15 36  1  0
 16 37  1  0
 17 38  1  0
M  END
>  <meeko>  (9)
{"is_sidechain": false}

>  <source_group>  (9)
CHRFAM7A at A face

>  <source_system>  (9)
CHRNA7_encenicline

>  <source_run>  (9)
hybrid_A_face_seed5519_ex32

>  <source_seed>  (9)
5519

>  <vina_pose_rank>  (9)
9

>  <vina_affinity_kcal_mol>  (9)
-6.3019999999999996

>  <vina_rmsd_to_crystal_angstrom>  (9)
7.8346

$$$$
CHRNA7_encenicline__hybrid_A_face_seed5519_ex32__pose10
     RDKit          3D

 38 41  0  0  0  0  0  0  0  0999 V2000
  141.7280  140.7590   91.4710 O   0  0  0  0  0  0  0  0  0  0  0  0
  142.0990  140.0920   90.5650 C   0  0  0  0  0  0  0  0  0  0  0  0
  141.1300  139.4840   89.6740 N   0  0  0  0  0  0  0  0  0  0  0  0
  139.6850  139.7040   89.9110 C   0  0  1  0  0  0  0  0  0  0  0  0
  138.9480  139.8480   88.5640 C   0  0  0  0  0  0  0  0  0  0  0  0
  137.9470  138.8830   88.4290 N   0  0  0  0  0  0  0  0  0  0  0  0
  137.0420  138.9830   89.4630 C   0  0  0  0  0  0  0  0  0  0  0  0
  137.7070  138.7880   90.7940 C   0  0  0  0  0  0  0  0  0  0  0  0
  139.1150  138.5630   90.6220 C   0  0  0  0  0  0  0  0  0  0  0  0
  139.2940  137.3710   89.7970 C   0  0  0  0  0  0  0  0  0  0  0  0
  138.5270  137.5910   88.4380 C   0  0  0  0  0  0  0  0  0  0  0  0
  143.6010  139.8810   90.3440 C   0  0  0  0  0  0  0  0  0  0  0  0
  144.5150  139.6290   91.3090 C   0  0  0  0  0  0  0  0  0  0  0  0
  145.8930  139.4510   90.9480 C   0  0  0  0  0  0  0  0  0  0  0  0
  146.9340  139.1900   91.7980 C   0  0  0  0  0  0  0  0  0  0  0  0
  148.2270  139.0430   91.2960 C   0  0  0  0  0  0  0  0  0  0  0  0
  148.4620  139.1640   89.9150 C   0  0  0  0  0  0  0  0  0  0  0  0
  147.4030  139.4300   89.0410 C   0  0  0  0  0  0  0  0  0  0  0  0
  147.7070  139.5800   87.2910 Cl  0  0  0  0  0  0  0  0  0  0  0  0
  146.1290  139.5750   89.5340 C   0  0  0  0  0  0  0  0  0  0  0  0
  144.4820  139.9130   88.8430 S   0  0  0  0  0  0  0  0  0  0  0  0
  141.4300  138.9300   88.9190 H   0  0  0  0  0  0  0  0  0  0  0  0
  139.5672  140.6196   90.5092 H   0  0  0  0  0  0  0  0  0  0  0  0
  138.4921  140.8476   88.5098 H   0  0  0  0  0  0  0  0  0  0  0  0
  139.6770  139.7090   87.7520 H   0  0  0  0  0  0  0  0  0  0  0  0
  136.5782  139.9801   89.4374 H   0  0  0  0  0  0  0  0  0  0  0  0
  136.2838  138.1962   89.3365 H   0  0  0  0  0  0  0  0  0  0  0  0
  137.5562  139.6870   91.4097 H   0  0  0  0  0  0  0  0  0  0  0  0
  137.2635  137.9117   91.2895 H   0  0  0  0  0  0  0  0  0  0  0  0
  139.6049  138.4352   91.5986 H   0  0  0  0  0  0  0  0  0  0  0  0
  140.3644  137.2130   89.5988 H   0  0  0  0  0  0  0  0  0  0  0  0
  138.8977  136.4866   90.3173 H   0  0  0  0  0  0  0  0  0  0  0  0
  139.2328  137.4997   87.5993 H   0  0  0  0  0  0  0  0  0  0  0  0
  137.7367  136.8328   88.3352 H   0  0  0  0  0  0  0  0  0  0  0  0
  144.2047  139.5610   92.3621 H   0  0  0  0  0  0  0  0  0  0  0  0
  146.7504  139.0961   92.8785 H   0  0  0  0  0  0  0  0  0  0  0  0
  149.0623  138.8325   91.9800 H   0  0  0  0  0  0  0  0  0  0  0  0
  149.4824  139.0491   89.5206 H   0  0  0  0  0  0  0  0  0  0  0  0
  1  2  2  0
  2  3  1  0
  3  4  1  0
  4  5  1  0
  5  6  1  0
  6  7  1  0
  7  8  1  0
  8  9  1  0
  9 10  1  0
 10 11  1  0
  2 12  1  0
 12 13  2  0
 13 14  1  0
 14 15  2  0
 15 16  1  0
 16 17  2  0
 17 18  1  0
 18 19  1  0
 18 20  2  0
 20 21  1  0
  9  4  1  0
 21 12  1  0
 11  6  1  0
 20 14  1  0
  3 22  1  0
  4 23  1  1
  5 24  1  0
  5 25  1  0
  7 26  1  0
  7 27  1  0
  8 28  1  0
  8 29  1  0
  9 30  1  0
 10 31  1  0
 10 32  1  0
 11 33  1  0
 11 34  1  0
 13 35  1  0
 15 36  1  0
 16 37  1  0
 17 38  1  0
M  END
>  <meeko>  (10)
{"is_sidechain": false}

>  <source_group>  (10)
CHRFAM7A at A face

>  <source_system>  (10)
CHRNA7_encenicline

>  <source_run>  (10)
hybrid_A_face_seed5519_ex32

>  <source_seed>  (10)
5519

>  <vina_pose_rank>  (10)
10

>  <vina_affinity_kcal_mol>  (10)
-6.2910000000000004

>  <vina_rmsd_to_crystal_angstrom>  (10)
3.3574999999999999

$$$$
CHRNA7_encenicline__hybrid_A_face_seed5519_ex32__pose11
     RDKit          3D

 38 41  0  0  0  0  0  0  0  0999 V2000
  144.5890  139.4770   91.5950 O   0  0  0  0  0  0  0  0  0  0  0  0
  144.0410  139.4360   90.5470 C   0  0  0  0  0  0  0  0  0  0  0  0
  144.7600  139.8070   89.3430 N   0  0  0  0  0  0  0  0  0  0  0  0
  146.1730  140.2370   89.4420 C   0  0  1  0  0  0  0  0  0  0  0  0
  147.1030  139.0940   88.9870 C   0  0  0  0  0  0  0  0  0  0  0  0
  147.9080  139.4930   87.9160 N   0  0  0  0  0  0  0  0  0  0  0  0
  148.6630  140.5900   88.2670 C   0  0  0  0  0  0  0  0  0  0  0  0
  147.7950  141.7490   88.6600 C   0  0  0  0  0  0  0  0  0  0  0  0
  146.4080  141.3880   88.5760 C   0  0  0  0  0  0  0  0  0  0  0  0
  146.1170  140.9940   87.1990 C   0  0  0  0  0  0  0  0  0  0  0  0
  147.0930  139.8210   86.8050 C   0  0  0  0  0  0  0  0  0  0  0  0
  142.5770  138.9870   90.4730 C   0  0  0  0  0  0  0  0  0  0  0  0
  141.5120  139.7940   90.2580 C   0  0  0  0  0  0  0  0  0  0  0  0
  140.1950  139.2260   90.2140 C   0  0  0  0  0  0  0  0  0  0  0  0
  139.0210  139.9010   90.0050 C   0  0  0  0  0  0  0  0  0  0  0  0
  137.8100  139.2080   89.9900 C   0  0  0  0  0  0  0  0  0  0  0  0
  137.7940  137.8170   90.1890 C   0  0  0  0  0  0  0  0  0  0  0  0
  138.9890  137.1220   90.4010 C   0  0  0  0  0  0  0  0  0  0  0  0
  138.9630  135.3570   90.6510 Cl  0  0  0  0  0  0  0  0  0  0  0  0
  140.1830  137.8020   90.4170 C   0  0  0  0  0  0  0  0  0  0  0  0
  141.9360  137.3780   90.6430 S   0  0  0  0  0  0  0  0  0  0  0  0
  144.3120  139.7740   88.4670 H   0  0  0  0  0  0  0  0  0  0  0  0
  146.3817  140.5032   90.4887 H   0  0  0  0  0  0  0  0  0  0  0  0
  147.7464  138.7984   89.8288 H   0  0  0  0  0  0  0  0  0  0  0  0
  146.4807  138.2484   88.6588 H   0  0  0  0  0  0  0  0  0  0  0  0
  149.3093  140.3228   89.1161 H   0  0  0  0  0  0  0  0  0  0  0  0
  149.2656  140.8884   87.3965 H   0  0  0  0  0  0  0  0  0  0  0  0
  148.0306  142.0440   89.6932 H   0  0  0  0  0  0  0  0  0  0  0  0
  147.9873  142.5870   87.9738 H   0  0  0  0  0  0  0  0  0  0  0  0
  145.7731  142.2333   88.8801 H   0  0  0  0  0  0  0  0  0  0  0  0
  145.0742  140.6524   87.1220 H   0  0  0  0  0  0  0  0  0  0  0  0
  146.2581  141.8491   86.5215 H   0  0  0  0  0  0  0  0  0  0  0  0
  146.5060  138.9395   86.5077 H   0  0  0  0  0  0  0  0  0  0  0  0
  147.7281  140.1384   85.9648 H   0  0  0  0  0  0  0  0  0  0  0  0
  141.6547  140.8757   90.1182 H   0  0  0  0  0  0  0  0  0  0  0  0
  139.0332  140.9898   89.8490 H   0  0  0  0  0  0  0  0  0  0  0  0
  136.8679  139.7505   89.8224 H   0  0  0  0  0  0  0  0  0  0  0  0
  136.8381  137.2728   90.1780 H   0  0  0  0  0  0  0  0  0  0  0  0
  1  2  2  0
  2  3  1  0
  3  4  1  0
  4  5  1  0
  5  6  1  0
  6  7  1  0
  7  8  1  0
  8  9  1  0
  9 10  1  0
 10 11  1  0
  2 12  1  0
 12 13  2  0
 13 14  1  0
 14 15  2  0
 15 16  1  0
 16 17  2  0
 17 18  1  0
 18 19  1  0
 18 20  2  0
 20 21  1  0
  9  4  1  0
 21 12  1  0
 11  6  1  0
 20 14  1  0
  3 22  1  0
  4 23  1  1
  5 24  1  0
  5 25  1  0
  7 26  1  0
  7 27  1  0
  8 28  1  0
  8 29  1  0
  9 30  1  0
 10 31  1  0
 10 32  1  0
 11 33  1  0
 11 34  1  0
 13 35  1  0
 15 36  1  0
 16 37  1  0
 17 38  1  0
M  END
>  <meeko>  (11)
{"is_sidechain": false}

>  <source_group>  (11)
CHRFAM7A at A face

>  <source_system>  (11)
CHRNA7_encenicline

>  <source_run>  (11)
hybrid_A_face_seed5519_ex32

>  <source_seed>  (11)
5519

>  <vina_pose_rank>  (11)
11

>  <vina_affinity_kcal_mol>  (11)
-6.2640000000000002

>  <vina_rmsd_to_crystal_angstrom>  (11)
6.9866999999999999

$$$$
CHRNA7_encenicline__hybrid_A_face_seed5519_ex32__pose12
     RDKit          3D

 38 41  0  0  0  0  0  0  0  0999 V2000
  146.1300  140.2010   93.1700 O   0  0  0  0  0  0  0  0  0  0  0  0
  145.0300  139.8320   92.9360 C   0  0  0  0  0  0  0  0  0  0  0  0
  144.8230  138.6700   92.0940 N   0  0  0  0  0  0  0  0  0  0  0  0
  145.9950  137.9590   91.5330 C   0  0  1  0  0  0  0  0  0  0  0  0
  146.4870  136.8910   92.5290 C   0  0  0  0  0  0  0  0  0  0  0  0
  146.4670  135.6170   91.9550 N   0  0  0  0  0  0  0  0  0  0  0  0
  147.2510  135.5880   90.8220 C   0  0  0  0  0  0  0  0  0  0  0  0
  146.7700  136.5740   89.7980 C   0  0  0  0  0  0  0  0  0  0  0  0
  145.6250  137.2890   90.2900 C   0  0  0  0  0  0  0  0  0  0  0  0
  144.5700  136.3230   90.5850 C   0  0  0  0  0  0  0  0  0  0  0  0
  145.1370  135.2700   91.6120 C   0  0  0  0  0  0  0  0  0  0  0  0
  143.8350  140.5860   93.5300 C   0  0  0  0  0  0  0  0  0  0  0  0
  143.5440  140.6970   94.8470 C   0  0  0  0  0  0  0  0  0  0  0  0
  142.3870  141.4410   95.2550 C   0  0  0  0  0  0  0  0  0  0  0  0
  141.9590  141.6480   96.5390 C   0  0  0  0  0  0  0  0  0  0  0  0
  140.8060  142.3960   96.7790 C   0  0  0  0  0  0  0  0  0  0  0  0
  140.0840  142.9390   95.7030 C   0  0  0  0  0  0  0  0  0  0  0  0
  140.5160  142.7330   94.3890 C   0  0  0  0  0  0  0  0  0  0  0  0
  139.5970  143.4260   93.0280 Cl  0  0  0  0  0  0  0  0  0  0  0  0
  141.6510  141.9950   94.1500 C   0  0  0  0  0  0  0  0  0  0  0  0
  142.5900  141.4630   92.6870 S   0  0  0  0  0  0  0  0  0  0  0  0
  143.9120  138.3550   91.8970 H   0  0  0  0  0  0  0  0  0  0  0  0
  146.7898  138.6953   91.3428 H   0  0  0  0  0  0  0  0  0  0  0  0
  147.5164  137.1313   92.8332 H   0  0  0  0  0  0  0  0  0  0  0  0
  145.8150  136.8912   93.3999 H   0  0  0  0  0  0  0  0  0  0  0  0
  148.2871  135.8346   91.0973 H   0  0  0  0  0  0  0  0  0  0  0  0
  147.1924  134.5797   90.3861 H   0  0  0  0  0  0  0  0  0  0  0  0
  147.5761  137.2890   89.5767 H   0  0  0  0  0  0  0  0  0  0  0  0
  146.4858  136.0302   88.8851 H   0  0  0  0  0  0  0  0  0  0  0  0
  145.2814  138.0221   89.5454 H   0  0  0  0  0  0  0  0  0  0  0  0
  143.7036  136.8404   91.0227 H   0  0  0  0  0  0  0  0  0  0  0  0
  144.2494  135.8178   89.6619 H   0  0  0  0  0  0  0  0  0  0  0  0
  144.5129  135.2679   92.5178 H   0  0  0  0  0  0  0  0  0  0  0  0
  145.1240  134.2687   91.1568 H   0  0  0  0  0  0  0  0  0  0  0  0
  144.1898  140.2203   95.5992 H   0  0  0  0  0  0  0  0  0  0  0  0
  142.5246  141.2243   97.3819 H   0  0  0  0  0  0  0  0  0  0  0  0
  140.4622  142.5606   97.8108 H   0  0  0  0  0  0  0  0  0  0  0  0
  139.1753  143.5285   95.8949 H   0  0  0  0  0  0  0  0  0  0  0  0
  1  2  2  0
  2  3  1  0
  3  4  1  0
  4  5  1  0
  5  6  1  0
  6  7  1  0
  7  8  1  0
  8  9  1  0
  9 10  1  0
 10 11  1  0
  2 12  1  0
 12 13  2  0
 13 14  1  0
 14 15  2  0
 15 16  1  0
 16 17  2  0
 17 18  1  0
 18 19  1  0
 18 20  2  0
 20 21  1  0
  9  4  1  0
 21 12  1  0
 11  6  1  0
 20 14  1  0
  3 22  1  0
  4 23  1  6
  5 24  1  0
  5 25  1  0
  7 26  1  0
  7 27  1  0
  8 28  1  0
  8 29  1  0
  9 30  1  0
 10 31  1  0
 10 32  1  0
 11 33  1  0
 11 34  1  0
 13 35  1  0
 15 36  1  0
 16 37  1  0
 17 38  1  0
M  END
>  <meeko>  (12)
{"is_sidechain": false}

>  <source_group>  (12)
CHRFAM7A at A face

>  <source_system>  (12)
CHRNA7_encenicline

>  <source_run>  (12)
hybrid_A_face_seed5519_ex32

>  <source_seed>  (12)
5519

>  <vina_pose_rank>  (12)
12

>  <vina_affinity_kcal_mol>  (12)
-6.1550000000000002

>  <vina_rmsd_to_crystal_angstrom>  (12)
7.8855000000000004

$$$$
CHRNA7_encenicline__hybrid_A_face_seed5519_ex32__pose13
     RDKit          3D

 38 41  0  0  0  0  0  0  0  0999 V2000
  145.3760  140.9110   94.5960 O   0  0  0  0  0  0  0  0  0  0  0  0
  144.6050  141.2800   93.7770 C   0  0  0  0  0  0  0  0  0  0  0  0
  143.3230  141.8220   94.1860 N   0  0  0  0  0  0  0  0  0  0  0  0
  142.9940  141.9040   95.6270 C   0  0  1  0  0  0  0  0  0  0  0  0
  143.2280  143.3400   96.1380 C   0  0  0  0  0  0  0  0  0  0  0  0
  142.0580  143.8830   96.6750 N   0  0  0  0  0  0  0  0  0  0  0  0
  141.5920  143.0960   97.7050 C   0  0  0  0  0  0  0  0  0  0  0  0
  141.2930  141.7020   97.2380 C   0  0  0  0  0  0  0  0  0  0  0  0
  141.5900  141.5680   95.8390 C   0  0  0  0  0  0  0  0  0  0  0  0
  140.7710  142.5260   95.1010 C   0  0  0  0  0  0  0  0  0  0  0  0
  141.0660  143.9670   95.6660 C   0  0  0  0  0  0  0  0  0  0  0  0
  144.9720  141.1830   92.2910 C   0  0  0  0  0  0  0  0  0  0  0  0
  144.2530  140.5450   91.3390 C   0  0  0  0  0  0  0  0  0  0  0  0
  144.7250  140.5420   89.9830 C   0  0  0  0  0  0  0  0  0  0  0  0
  144.1180  139.9470   88.9090 C   0  0  0  0  0  0  0  0  0  0  0  0
  144.7010  140.0290   87.6440 C   0  0  0  0  0  0  0  0  0  0  0  0
  145.9120  140.7220   87.4720 C   0  0  0  0  0  0  0  0  0  0  0  0
  146.5360  141.3320   88.5650 C   0  0  0  0  0  0  0  0  0  0  0  0
  148.0710  142.2110   88.3400 Cl  0  0  0  0  0  0  0  0  0  0  0  0
  145.9640  141.2520   89.8110 C   0  0  0  0  0  0  0  0  0  0  0  0
  146.3610  141.8490   91.4820 S   0  0  0  0  0  0  0  0  0  0  0  0
  142.6780  142.1330   93.5110 H   0  0  0  0  0  0  0  0  0  0  0  0
  143.6380  141.1973   96.1708 H   0  0  0  0  0  0  0  0  0  0  0  0
  144.0050  143.3215   96.9164 H   0  0  0  0  0  0  0  0  0  0  0  0
  143.5436  143.9643   95.2891 H   0  0  0  0  0  0  0  0  0  0  0  0
  142.3557  143.0523   98.4955 H   0  0  0  0  0  0  0  0  0  0  0  0
  140.6605  143.5404   98.0855 H   0  0  0  0  0  0  0  0  0  0  0  0
  141.9064  140.9892   97.8086 H   0  0  0  0  0  0  0  0  0  0  0  0
  140.2247  141.4937   97.3975 H   0  0  0  0  0  0  0  0  0  0  0  0
  141.3860  140.5416   95.5002 H   0  0  0  0  0  0  0  0  0  0  0  0
  141.0251  142.4865   94.0315 H   0  0  0  0  0  0  0  0  0  0  0  0
  139.7046  142.2834   95.2191 H   0  0  0  0  0  0  0  0  0  0  0  0
  141.4244  144.6141   94.8519 H   0  0  0  0  0  0  0  0  0  0  0  0
  140.1443  144.3908   96.0912 H   0  0  0  0  0  0  0  0  0  0  0  0
  143.3153  140.0332   91.6014 H   0  0  0  0  0  0  0  0  0  0  0  0
  143.1707  139.4044   89.0438 H   0  0  0  0  0  0  0  0  0  0  0  0
  144.2132  139.5515   86.7814 H   0  0  0  0  0  0  0  0  0  0  0  0
  146.3705  140.7847   86.4741 H   0  0  0  0  0  0  0  0  0  0  0  0
  1  2  2  0
  2  3  1  0
  3  4  1  0
  4  5  1  0
  5  6  1  0
  6  7  1  0
  7  8  1  0
  8  9  1  0
  9 10  1  0
 10 11  1  0
  2 12  1  0
 12 13  2  0
 13 14  1  0
 14 15  2  0
 15 16  1  0
 16 17  2  0
 17 18  1  0
 18 19  1  0
 18 20  2  0
 20 21  1  0
  9  4  1  0
 21 12  1  0
 11  6  1  0
 20 14  1  0
  3 22  1  0
  4 23  1  1
  5 24  1  0
  5 25  1  0
  7 26  1  0
  7 27  1  0
  8 28  1  0
  8 29  1  0
  9 30  1  0
 10 31  1  0
 10 32  1  0
 11 33  1  0
 11 34  1  0
 13 35  1  0
 15 36  1  0
 16 37  1  0
 17 38  1  0
M  END
>  <meeko>  (13)
{"is_sidechain": false}

>  <source_group>  (13)
CHRFAM7A at A face

>  <source_system>  (13)
CHRNA7_encenicline

>  <source_run>  (13)
hybrid_A_face_seed5519_ex32

>  <source_seed>  (13)
5519

>  <vina_pose_rank>  (13)
13

>  <vina_affinity_kcal_mol>  (13)
-6.0730000000000004

>  <vina_rmsd_to_crystal_angstrom>  (13)
6.6109

$$$$
CHRNA7_encenicline__hybrid_A_face_seed5519_ex32__pose14
     RDKit          3D

 38 41  0  0  0  0  0  0  0  0999 V2000
  140.2820  140.7190   85.8690 O   0  0  0  0  0  0  0  0  0  0  0  0
  141.1720  140.3440   86.5550 C   0  0  0  0  0  0  0  0  0  0  0  0
  140.8920  139.8350   87.8830 N   0  0  0  0  0  0  0  0  0  0  0  0
  139.4940  139.7930   88.3680 C   0  0  1  0  0  0  0  0  0  0  0  0
  138.8200  138.4830   87.9130 C   0  0  0  0  0  0  0  0  0  0  0  0
  138.3610  137.7440   89.0060 N   0  0  0  0  0  0  0  0  0  0  0  0
  137.4700  138.4880   89.7480 C   0  0  0  0  0  0  0  0  0  0  0  0
  138.1030  139.7470   90.2640 C   0  0  0  0  0  0  0  0  0  0  0  0
  139.4690  139.8360   89.8270 C   0  0  0  0  0  0  0  0  0  0  0  0
  140.1910  138.6720   90.3340 C   0  0  0  0  0  0  0  0  0  0  0  0
  139.4560  137.3740   89.8250 C   0  0  0  0  0  0  0  0  0  0  0  0
  142.6100  140.3990   86.0270 C   0  0  0  0  0  0  0  0  0  0  0  0
  143.7110  139.9700   86.6860 C   0  0  0  0  0  0  0  0  0  0  0  0
  144.9980  140.0860   86.0600 C   0  0  0  0  0  0  0  0  0  0  0  0
  146.2010  139.6990   86.5890 C   0  0  0  0  0  0  0  0  0  0  0  0
  147.3750  139.8770   85.8560 C   0  0  0  0  0  0  0  0  0  0  0  0
  147.3230  140.4540   84.5760 C   0  0  0  0  0  0  0  0  0  0  0  0
  146.0980  140.8490   84.0300 C   0  0  0  0  0  0  0  0  0  0  0  0
  146.0390  141.5780   82.4040 Cl  0  0  0  0  0  0  0  0  0  0  0  0
  144.9400  140.6750   84.7500 C   0  0  0  0  0  0  0  0  0  0  0  0
  143.1710  141.0080   84.4960 S   0  0  0  0  0  0  0  0  0  0  0  0
  141.6260  139.5190   88.4580 H   0  0  0  0  0  0  0  0  0  0  0  0
  138.9573  140.6600   87.9555 H   0  0  0  0  0  0  0  0  0  0  0  0
  137.9680  138.7257   87.2609 H   0  0  0  0  0  0  0  0  0  0  0  0
  139.5633  137.8789   87.3720 H   0  0  0  0  0  0  0  0  0  0  0  0
  136.6108  138.7533   89.1145 H   0  0  0  0  0  0  0  0  0  0  0  0
  137.1487  137.8843   90.6095 H   0  0  0  0  0  0  0  0  0  0  0  0
  137.5439  140.6154   89.8853 H   0  0  0  0  0  0  0  0  0  0  0  0
  138.0802  139.7332   91.3637 H   0  0  0  0  0  0  0  0  0  0  0  0
  139.9289  140.7663   90.1916 H   0  0  0  0  0  0  0  0  0  0  0  0
  141.2256  138.6843   89.9606 H   0  0  0  0  0  0  0  0  0  0  0  0
  140.2129  138.6888   91.4337 H   0  0  0  0  0  0  0  0  0  0  0  0
  140.1582  136.7589   89.2431 H   0  0  0  0  0  0  0  0  0  0  0  0
  139.0913  136.7962   90.6871 H   0  0  0  0  0  0  0  0  0  0  0  0
  143.6210  139.5360   87.6928 H   0  0  0  0  0  0  0  0  0  0  0  0
  146.2415  139.2480   87.5915 H   0  0  0  0  0  0  0  0  0  0  0  0
  148.3410  139.5656   86.2802 H   0  0  0  0  0  0  0  0  0  0  0  0
  148.2500  140.5956   84.0010 H   0  0  0  0  0  0  0  0  0  0  0  0
  1  2  2  0
  2  3  1  0
  3  4  1  0
  4  5  1  0
  5  6  1  0
  6  7  1  0
  7  8  1  0
  8  9  1  0
  9 10  1  0
 10 11  1  0
  2 12  1  0
 12 13  2  0
 13 14  1  0
 14 15  2  0
 15 16  1  0
 16 17  2  0
 17 18  1  0
 18 19  1  0
 18 20  2  0
 20 21  1  0
  9  4  1  0
 21 12  1  0
 11  6  1  0
 20 14  1  0
  3 22  1  0
  4 23  1  6
  5 24  1  0
  5 25  1  0
  7 26  1  0
  7 27  1  0
  8 28  1  0
  8 29  1  0
  9 30  1  0
 10 31  1  0
 10 32  1  0
 11 33  1  0
 11 34  1  0
 13 35  1  0
 15 36  1  0
 16 37  1  0
 17 38  1  0
M  END
>  <meeko>  (14)
{"is_sidechain": false}

>  <source_group>  (14)
CHRFAM7A at A face

>  <source_system>  (14)
CHRNA7_encenicline

>  <source_run>  (14)
hybrid_A_face_seed5519_ex32

>  <source_seed>  (14)
5519

>  <vina_pose_rank>  (14)
14

>  <vina_affinity_kcal_mol>  (14)
-6.0529999999999999

>  <vina_rmsd_to_crystal_angstrom>  (14)
5.9236000000000004

$$$$
CHRNA7_encenicline__hybrid_A_face_seed5519_ex32__pose15
     RDKit          3D

 38 41  0  0  0  0  0  0  0  0999 V2000
  143.6250  139.4750   95.6860 O   0  0  0  0  0  0  0  0  0  0  0  0
  143.4640  140.1770   94.7460 C   0  0  0  0  0  0  0  0  0  0  0  0
  142.7840  141.4480   94.9030 N   0  0  0  0  0  0  0  0  0  0  0  0
  142.2950  141.8520   96.2410 C   0  0  1  0  0  0  0  0  0  0  0  0
  142.6360  143.3330   96.5000 C   0  0  0  0  0  0  0  0  0  0  0  0
  141.4830  144.0810   96.7520 N   0  0  0  0  0  0  0  0  0  0  0  0
  140.8050  143.5670   97.8360 C   0  0  0  0  0  0  0  0  0  0  0  0
  140.3990  142.1420   97.6020 C   0  0  0  0  0  0  0  0  0  0  0  0
  140.8450  141.6990   96.3100 C   0  0  0  0  0  0  0  0  0  0  0  0
  140.2430  142.5600   95.2950 C   0  0  0  0  0  0  0  0  0  0  0  0
  140.6380  144.0510   95.6150 C   0  0  0  0  0  0  0  0  0  0  0  0
  143.9810  139.7340   93.3730 C   0  0  0  0  0  0  0  0  0  0  0  0
  144.2340  138.4590   92.9960 C   0  0  0  0  0  0  0  0  0  0  0  0
  144.7150  138.1980   91.6690 C   0  0  0  0  0  0  0  0  0  0  0  0
  145.0140  136.9720   91.1350 C   0  0  0  0  0  0  0  0  0  0  0  0
  145.4760  136.8760   89.8220 C   0  0  0  0  0  0  0  0  0  0  0  0
  145.6350  138.0370   89.0470 C   0  0  0  0  0  0  0  0  0  0  0  0
  145.3300  139.2910   89.5850 C   0  0  0  0  0  0  0  0  0  0  0  0
  145.5300  140.7610   88.5950 Cl  0  0  0  0  0  0  0  0  0  0  0  0
  144.8740  139.3880   90.8780 C   0  0  0  0  0  0  0  0  0  0  0  0
  144.3610  140.7280   91.9950 S   0  0  0  0  0  0  0  0  0  0  0  0
  142.6490  142.0380   94.1270 H   0  0  0  0  0  0  0  0  0  0  0  0
  142.7790  141.2136   96.9948 H   0  0  0  0  0  0  0  0  0  0  0  0
  143.3046  143.4001   97.3709 H   0  0  0  0  0  0  0  0  0  0  0  0
  143.1254  143.7395   95.6027 H   0  0  0  0  0  0  0  0  0  0  0  0
  141.4572  143.6127   98.7206 H   0  0  0  0  0  0  0  0  0  0  0  0
  139.8950  144.1653   97.9907 H   0  0  0  0  0  0  0  0  0  0  0  0
  140.8482  141.5052   98.3783 H   0  0  0  0  0  0  0  0  0  0  0  0
  139.3020  142.0725   97.6436 H   0  0  0  0  0  0  0  0  0  0  0  0
  140.5613  140.6490   96.1454 H   0  0  0  0  0  0  0  0  0  0  0  0
  140.6190  142.2809   94.2997 H   0  0  0  0  0  0  0  0  0  0  0  0
  139.1488  142.4475   95.3025 H   0  0  0  0  0  0  0  0  0  0  0  0
  141.1672  144.4834   94.7531 H   0  0  0  0  0  0  0  0  0  0  0  0
  139.7289  144.6362   95.8176 H   0  0  0  0  0  0  0  0  0  0  0  0
  144.0724  137.6298   93.7005 H   0  0  0  0  0  0  0  0  0  0  0  0
  144.8897  136.0630   91.7418 H   0  0  0  0  0  0  0  0  0  0  0  0
  145.7157  135.8916   89.3937 H   0  0  0  0  0  0  0  0  0  0  0  0
  146.0010  137.9591   88.0126 H   0  0  0  0  0  0  0  0  0  0  0  0
  1  2  2  0
  2  3  1  0
  3  4  1  0
  4  5  1  0
  5  6  1  0
  6  7  1  0
  7  8  1  0
  8  9  1  0
  9 10  1  0
 10 11  1  0
  2 12  1  0
 12 13  2  0
 13 14  1  0
 14 15  2  0
 15 16  1  0
 16 17  2  0
 17 18  1  0
 18 19  1  0
 18 20  2  0
 20 21  1  0
  9  4  1  0
 21 12  1  0
 11  6  1  0
 20 14  1  0
  3 22  1  0
  4 23  1  1
  5 24  1  0
  5 25  1  0
  7 26  1  0
  7 27  1  0
  8 28  1  0
  8 29  1  0
  9 30  1  0
 10 31  1  0
 10 32  1  0
 11 33  1  0
 11 34  1  0
 13 35  1  0
 15 36  1  0
 16 37  1  0
 17 38  1  0
M  END
>  <meeko>  (15)
{"is_sidechain": false}

>  <source_group>  (15)
CHRFAM7A at A face

>  <source_system>  (15)
CHRNA7_encenicline

>  <source_run>  (15)
hybrid_A_face_seed5519_ex32

>  <source_seed>  (15)
5519

>  <vina_pose_rank>  (15)
15

>  <vina_affinity_kcal_mol>  (15)
-6.024

>  <vina_rmsd_to_crystal_angstrom>  (15)
6.0442999999999998

$$$$
CHRNA7_encenicline__hybrid_A_face_seed5519_ex32__pose16
     RDKit          3D

 38 41  0  0  0  0  0  0  0  0999 V2000
  139.9770  139.0620   90.3460 O   0  0  0  0  0  0  0  0  0  0  0  0
  140.4950  140.1150   90.5070 C   0  0  0  0  0  0  0  0  0  0  0  0
  141.9240  140.1870   90.7430 N   0  0  0  0  0  0  0  0  0  0  0  0
  142.7190  138.9390   90.7840 C   0  0  1  0  0  0  0  0  0  0  0  0
  143.8610  139.0090   89.7510 C   0  0  0  0  0  0  0  0  0  0  0  0
  145.1080  138.8600   90.3630 N   0  0  0  0  0  0  0  0  0  0  0  0
  145.1700  137.6610   91.0390 C   0  0  0  0  0  0  0  0  0  0  0  0
  144.1110  137.5740   92.0990 C   0  0  0  0  0  0  0  0  0  0  0  0
  143.3110  138.7670   92.1070 C   0  0  0  0  0  0  0  0  0  0  0  0
  144.1860  139.9060   92.3710 C   0  0  0  0  0  0  0  0  0  0  0  0
  145.3200  139.9220   91.2760 C   0  0  0  0  0  0  0  0  0  0  0  0
  139.6470  141.3910   90.4590 C   0  0  0  0  0  0  0  0  0  0  0  0
  139.5270  142.2990   91.4550 C   0  0  0  0  0  0  0  0  0  0  0  0
  138.6940  143.4520   91.2620 C   0  0  0  0  0  0  0  0  0  0  0  0
  138.4700  144.4580   92.1640 C   0  0  0  0  0  0  0  0  0  0  0  0
  137.6280  145.5200   91.8320 C   0  0  0  0  0  0  0  0  0  0  0  0
  137.0100  145.5570   90.5700 C   0  0  0  0  0  0  0  0  0  0  0  0
  137.2350  144.5340   89.6440 C   0  0  0  0  0  0  0  0  0  0  0  0
  136.4500  144.5890   88.0450 Cl  0  0  0  0  0  0  0  0  0  0  0  0
  138.0640  143.4870   89.9700 C   0  0  0  0  0  0  0  0  0  0  0  0
  138.6560  141.9750   89.1520 S   0  0  0  0  0  0  0  0  0  0  0  0
  142.3610  141.0590   90.8750 H   0  0  0  0  0  0  0  0  0  0  0  0
  142.0516  138.0950   90.5555 H   0  0  0  0  0  0  0  0  0  0  0  0
  143.7259  138.2052   89.0123 H   0  0  0  0  0  0  0  0  0  0  0  0
  143.8287  139.9946   89.2635 H   0  0  0  0  0  0  0  0  0  0  0  0
  145.0275  136.8385   90.3226 H   0  0  0  0  0  0  0  0  0  0  0  0
  146.1537  137.5888   91.5260 H   0  0  0  0  0  0  0  0  0  0  0  0
  143.4658  136.7064   91.8964 H   0  0  0  0  0  0  0  0  0  0  0  0
  144.5964  137.4634   93.0799 H   0  0  0  0  0  0  0  0  0  0  0  0
  142.5247  138.6965   92.8731 H   0  0  0  0  0  0  0  0  0  0  0  0
  143.6068  140.8398   92.3205 H   0  0  0  0  0  0  0  0  0  0  0  0
  144.6286  139.8199   93.3743 H   0  0  0  0  0  0  0  0  0  0  0  0
  145.2955  140.8802   90.7363 H   0  0  0  0  0  0  0  0  0  0  0  0
  146.3000  139.7997   91.7604 H   0  0  0  0  0  0  0  0  0  0  0  0
  140.0632  142.1548   92.4046 H   0  0  0  0  0  0  0  0  0  0  0  0
  138.9544  144.4287   93.1512 H   0  0  0  0  0  0  0  0  0  0  0  0
  137.4480  146.3274   92.5571 H   0  0  0  0  0  0  0  0  0  0  0  0
  136.3463  146.3947   90.3098 H   0  0  0  0  0  0  0  0  0  0  0  0
  1  2  2  0
  2  3  1  0
  3  4  1  0
  4  5  1  0
  5  6  1  0
  6  7  1  0
  7  8  1  0
  8  9  1  0
  9 10  1  0
 10 11  1  0
  2 12  1  0
 12 13  2  0
 13 14  1  0
 14 15  2  0
 15 16  1  0
 16 17  2  0
 17 18  1  0
 18 19  1  0
 18 20  2  0
 20 21  1  0
  9  4  1  0
 21 12  1  0
 11  6  1  0
 20 14  1  0
  3 22  1  0
  4 23  1  6
  5 24  1  0
  5 25  1  0
  7 26  1  0
  7 27  1  0
  8 28  1  0
  8 29  1  0
  9 30  1  0
 10 31  1  0
 10 32  1  0
 11 33  1  0
 11 34  1  0
 13 35  1  0
 15 36  1  0
 16 37  1  0
 17 38  1  0
M  END
>  <meeko>  (16)
{"is_sidechain": false}

>  <source_group>  (16)
CHRFAM7A at A face

>  <source_system>  (16)
CHRNA7_encenicline

>  <source_run>  (16)
hybrid_A_face_seed5519_ex32

>  <source_seed>  (16)
5519

>  <vina_pose_rank>  (16)
16

>  <vina_affinity_kcal_mol>  (16)
-5.9880000000000004

>  <vina_rmsd_to_crystal_angstrom>  (16)
8.6674000000000007

$$$$
CHRNA7_encenicline__hybrid_A_face_seed5519_ex32__pose17
     RDKit          3D

 38 41  0  0  0  0  0  0  0  0999 V2000
  147.6700  140.5990   91.3860 O   0  0  0  0  0  0  0  0  0  0  0  0
  147.5580  139.7700   90.5490 C   0  0  0  0  0  0  0  0  0  0  0  0
  148.2430  139.9300   89.2800 N   0  0  0  0  0  0  0  0  0  0  0  0
  149.0720  141.1350   89.0470 C   0  0  1  0  0  0  0  0  0  0  0  0
  150.4890  140.7200   88.6060 C   0  0  0  0  0  0  0  0  0  0  0  0
  150.8080  141.2570   87.3560 N   0  0  0  0  0  0  0  0  0  0  0  0
  150.7190  142.6320   87.3890 C   0  0  0  0  0  0  0  0  0  0  0  0
  149.3360  143.0820   87.7560 C   0  0  0  0  0  0  0  0  0  0  0  0
  148.4840  141.9490   87.9880 C   0  0  0  0  0  0  0  0  0  0  0  0
  148.4390  141.1500   86.7660 C   0  0  0  0  0  0  0  0  0  0  0  0
  149.9150  140.7540   86.3790 C   0  0  0  0  0  0  0  0  0  0  0  0
  146.6930  138.5330   90.8170 C   0  0  0  0  0  0  0  0  0  0  0  0
  147.1360  137.3460   91.2910 C   0  0  0  0  0  0  0  0  0  0  0  0
  146.2030  136.2740   91.4940 C   0  0  0  0  0  0  0  0  0  0  0  0
  146.4880  135.0200   91.9660 C   0  0  0  0  0  0  0  0  0  0  0  0
  145.4690  134.0790   92.1090 C   0  0  0  0  0  0  0  0  0  0  0  0
  144.1480  134.4170   91.7680 C   0  0  0  0  0  0  0  0  0  0  0  0
  143.8490  135.6960   91.2870 C   0  0  0  0  0  0  0  0  0  0  0  0
  142.1710  136.1200   90.8590 Cl  0  0  0  0  0  0  0  0  0  0  0  0
  144.8520  136.6250   91.1450 C   0  0  0  0  0  0  0  0  0  0  0  0
  144.9780  138.3500   90.5860 S   0  0  0  0  0  0  0  0  0  0  0  0
  148.1570  139.2440   88.5800 H   0  0  0  0  0  0  0  0  0  0  0  0
  149.1192  141.7104   89.9833 H   0  0  0  0  0  0  0  0  0  0  0  0
  151.2159  141.0821   89.3479 H   0  0  0  0  0  0  0  0  0  0  0  0
  150.5230  139.6230   88.5322 H   0  0  0  0  0  0  0  0  0  0  0  0
  151.4306  143.0190   88.1332 H   0  0  0  0  0  0  0  0  0  0  0  0
  150.9542  143.0184   86.3863 H   0  0  0  0  0  0  0  0  0  0  0  0
  149.3843  143.6920   88.6701 H   0  0  0  0  0  0  0  0  0  0  0  0
  148.9225  143.6745   86.9266 H   0  0  0  0  0  0  0  0  0  0  0  0
  147.4743  142.2796   88.2730 H   0  0  0  0  0  0  0  0  0  0  0  0
  147.8429  140.2415   86.9373 H   0  0  0  0  0  0  0  0  0  0  0  0
  147.9758  141.7275   85.9524 H   0  0  0  0  0  0  0  0  0  0  0  0
  150.0009  139.6583   86.3326 H   0  0  0  0  0  0  0  0  0  0  0  0
  150.1651  141.1823   85.3971 H   0  0  0  0  0  0  0  0  0  0  0  0
  148.2026  137.2033   91.5191 H   0  0  0  0  0  0  0  0  0  0  0  0
  147.5218  134.7551   92.2325 H   0  0  0  0  0  0  0  0  0  0  0  0
  145.6989  133.0725   92.4886 H   0  0  0  0  0  0  0  0  0  0  0  0
  143.3459  133.6726   91.8799 H   0  0  0  0  0  0  0  0  0  0  0  0
  1  2  2  0
  2  3  1  0
  3  4  1  0
  4  5  1  0
  5  6  1  0
  6  7  1  0
  7  8  1  0
  8  9  1  0
  9 10  1  0
 10 11  1  0
  2 12  1  0
 12 13  2  0
 13 14  1  0
 14 15  2  0
 15 16  1  0
 16 17  2  0
 17 18  1  0
 18 19  1  0
 18 20  2  0
 20 21  1  0
  9  4  1  0
 21 12  1  0
 11  6  1  0
 20 14  1  0
  3 22  1  0
  4 23  1  1
  5 24  1  0
  5 25  1  0
  7 26  1  0
  7 27  1  0
  8 28  1  0
  8 29  1  0
  9 30  1  0
 10 31  1  0
 10 32  1  0
 11 33  1  0
 11 34  1  0
 13 35  1  0
 15 36  1  0
 16 37  1  0
 17 38  1  0
M  END
>  <meeko>  (17)
{"is_sidechain": false}

>  <source_group>  (17)
CHRFAM7A at A face

>  <source_system>  (17)
CHRNA7_encenicline

>  <source_run>  (17)
hybrid_A_face_seed5519_ex32

>  <source_seed>  (17)
5519

>  <vina_pose_rank>  (17)
17

>  <vina_affinity_kcal_mol>  (17)
-5.96

>  <vina_rmsd_to_crystal_angstrom>  (17)
7.1086

$$$$
CHRNA7_encenicline__hybrid_A_face_seed5519_ex32__pose18
     RDKit          3D

 38 41  0  0  0  0  0  0  0  0999 V2000
  144.9050  137.5240   91.7710 O   0  0  0  0  0  0  0  0  0  0  0  0
  144.4480  138.3780   91.0910 C   0  0  0  0  0  0  0  0  0  0  0  0
  145.3090  139.4200   90.5660 N   0  0  0  0  0  0  0  0  0  0  0  0
  146.7540  139.4030   90.8920 C   0  0  1  0  0  0  0  0  0  0  0  0
  147.5610  138.9140   89.6730 C   0  0  0  0  0  0  0  0  0  0  0  0
  148.4960  139.8700   89.2680 N   0  0  0  0  0  0  0  0  0  0  0  0
  149.3570  140.1670   90.3020 C   0  0  0  0  0  0  0  0  0  0  0  0
  148.6180  140.7060   91.4920 C   0  0  0  0  0  0  0  0  0  0  0  0
  147.2070  140.7500   91.2270 C   0  0  0  0  0  0  0  0  0  0  0  0
  146.9820  141.6120   90.0700 C   0  0  0  0  0  0  0  0  0  0  0  0
  147.8260  141.0500   88.8630 C   0  0  0  0  0  0  0  0  0  0  0  0
  142.9490  138.3710   90.7700 C   0  0  0  0  0  0  0  0  0  0  0  0
  142.1500  137.2800   90.7490 C   0  0  0  0  0  0  0  0  0  0  0  0
  140.7580  137.4300   90.4310 C   0  0  0  0  0  0  0  0  0  0  0  0
  139.8220  136.4320   90.3700 C   0  0  0  0  0  0  0  0  0  0  0  0
  138.4990  136.7350   90.0440 C   0  0  0  0  0  0  0  0  0  0  0  0
  138.1270  138.0640   89.7800 C   0  0  0  0  0  0  0  0  0  0  0  0
  139.0780  139.0870   89.8420 C   0  0  0  0  0  0  0  0  0  0  0  0
  138.6000  140.7720   89.5070 Cl  0  0  0  0  0  0  0  0  0  0  0  0
  140.3820  138.7920   90.1620 C   0  0  0  0  0  0  0  0  0  0  0  0
  141.9300  139.7230   90.3650 S   0  0  0  0  0  0  0  0  0  0  0  0
  144.9370  140.1330   89.9980 H   0  0  0  0  0  0  0  0  0  0  0  0
  146.9090  138.7282   91.7468 H   0  0  0  0  0  0  0  0  0  0  0  0
  148.0891  137.9870   89.9410 H   0  0  0  0  0  0  0  0  0  0  0  0
  146.8625  138.7368   88.8419 H   0  0  0  0  0  0  0  0  0  0  0  0
  149.8914  139.2519   90.5969 H   0  0  0  0  0  0  0  0  0  0  0  0
  150.0626  140.9363   89.9550 H   0  0  0  0  0  0  0  0  0  0  0  0
  148.8038  140.0554   92.3593 H   0  0  0  0  0  0  0  0  0  0  0  0
  148.9738  141.7256   91.7014 H   0  0  0  0  0  0  0  0  0  0  0  0
  146.6640  141.1304   92.1047 H   0  0  0  0  0  0  0  0  0  0  0  0
  145.9135  141.6124   89.8086 H   0  0  0  0  0  0  0  0  0  0  0  0
  147.2890  142.6430   90.2999 H   0  0  0  0  0  0  0  0  0  0  0  0
  147.1558  140.8212   88.0213 H   0  0  0  0  0  0  0  0  0  0  0  0
  148.5640  141.8025   88.5482 H   0  0  0  0  0  0  0  0  0  0  0  0
  142.5633  136.2857   90.9738 H   0  0  0  0  0  0  0  0  0  0  0  0
  140.1128  135.3917   90.5779 H   0  0  0  0  0  0  0  0  0  0  0  0
  137.7475  135.9333   89.9938 H   0  0  0  0  0  0  0  0  0  0  0  0
  137.0838  138.3004   89.5236 H   0  0  0  0  0  0  0  0  0  0  0  0
  1  2  2  0
  2  3  1  0
  3  4  1  0
  4  5  1  0
  5  6  1  0
  6  7  1  0
  7  8  1  0
  8  9  1  0
  9 10  1  0
 10 11  1  0
  2 12  1  0
 12 13  2  0
 13 14  1  0
 14 15  2  0
 15 16  1  0
 16 17  2  0
 17 18  1  0
 18 19  1  0
 18 20  2  0
 20 21  1  0
  9  4  1  0
 21 12  1  0
 11  6  1  0
 20 14  1  0
  3 22  1  0
  4 23  1  1
  5 24  1  0
  5 25  1  0
  7 26  1  0
  7 27  1  0
  8 28  1  0
  8 29  1  0
  9 30  1  0
 10 31  1  0
 10 32  1  0
 11 33  1  0
 11 34  1  0
 13 35  1  0
 15 36  1  0
 16 37  1  0
 17 38  1  0
M  END
>  <meeko>  (18)
{"is_sidechain": false}

>  <source_group>  (18)
CHRFAM7A at A face

>  <source_system>  (18)
CHRNA7_encenicline

>  <source_run>  (18)
hybrid_A_face_seed5519_ex32

>  <source_seed>  (18)
5519

>  <vina_pose_rank>  (18)
18

>  <vina_affinity_kcal_mol>  (18)
-5.8730000000000002

>  <vina_rmsd_to_crystal_angstrom>  (18)
7.2091000000000003

$$$$
CHRNA7_encenicline__hybrid_A_face_seed5519_ex32__pose19
     RDKit          3D

 38 41  0  0  0  0  0  0  0  0999 V2000
  144.4740  142.3790   95.1830 O   0  0  0  0  0  0  0  0  0  0  0  0
  143.6220  141.8880   94.5240 C   0  0  0  0  0  0  0  0  0  0  0  0
  142.2320  142.2010   94.7940 N   0  0  0  0  0  0  0  0  0  0  0  0
  141.8960  143.1300   95.8960 C   0  0  1  0  0  0  0  0  0  0  0  0
  140.6510  143.9600   95.5220 C   0  0  0  0  0  0  0  0  0  0  0  0
  139.6240  143.7800   96.4520 N   0  0  0  0  0  0  0  0  0  0  0  0
  140.0530  144.1320   97.7140 C   0  0  0  0  0  0  0  0  0  0  0  0
  141.2280  143.3060   98.1440 C   0  0  0  0  0  0  0  0  0  0  0  0
  141.5940  142.3780   97.1100 C   0  0  0  0  0  0  0  0  0  0  0  0
  140.4490  141.5120   96.8420 C   0  0  0  0  0  0  0  0  0  0  0  0
  139.2200  142.4220   96.4580 C   0  0  0  0  0  0  0  0  0  0  0  0
  143.9990  140.9290   93.3890 C   0  0  0  0  0  0  0  0  0  0  0  0
  144.2820  141.2830   92.1140 C   0  0  0  0  0  0  0  0  0  0  0  0
  144.6220  140.2680   91.1580 C   0  0  0  0  0  0  0  0  0  0  0  0
  144.9340  140.4610   89.8390 C   0  0  0  0  0  0  0  0  0  0  0  0
  145.2440  139.3690   89.0280 C   0  0  0  0  0  0  0  0  0  0  0  0
  145.2360  138.0700   89.5650 C   0  0  0  0  0  0  0  0  0  0  0  0
  144.9190  137.8670   90.9120 C   0  0  0  0  0  0  0  0  0  0  0  0
  144.9120  136.2170   91.5880 Cl  0  0  0  0  0  0  0  0  0  0  0  0
  144.6130  138.9410   91.7120 C   0  0  0  0  0  0  0  0  0  0  0  0
  144.1530  139.1960   93.4520 S   0  0  0  0  0  0  0  0  0  0  0  0
  141.5180  141.7990   94.2490 H   0  0  0  0  0  0  0  0  0  0  0  0
  142.7578  143.7921   96.0661 H   0  0  0  0  0  0  0  0  0  0  0  0
  140.9255  145.0248   95.4926 H   0  0  0  0  0  0  0  0  0  0  0  0
  140.2919  143.6240   94.5381 H   0  0  0  0  0  0  0  0  0  0  0  0
  140.3439  145.1928   97.7099 H   0  0  0  0  0  0  0  0  0  0  0  0
  139.2290  143.9552   98.4210 H   0  0  0  0  0  0  0  0  0  0  0  0
  142.0800  143.9695   98.3536 H   0  0  0  0  0  0  0  0  0  0  0  0
  140.9557  142.7426   99.0487 H   0  0  0  0  0  0  0  0  0  0  0  0
  142.4656  141.7827   97.4197 H   0  0  0  0  0  0  0  0  0  0  0  0
  140.6833  140.8324   96.0094 H   0  0  0  0  0  0  0  0  0  0  0  0
  140.2120  140.9104   97.7319 H   0  0  0  0  0  0  0  0  0  0  0  0
  138.8550  142.1432   95.4585 H   0  0  0  0  0  0  0  0  0  0  0  0
  138.4145  142.2814   97.1938 H   0  0  0  0  0  0  0  0  0  0  0  0
  144.2517  142.3405   91.8126 H   0  0  0  0  0  0  0  0  0  0  0  0
  144.9403  141.4774   89.4185 H   0  0  0  0  0  0  0  0  0  0  0  0
  145.4947  139.5245   87.9683 H   0  0  0  0  0  0  0  0  0  0  0  0
  145.4799  137.2102   88.9237 H   0  0  0  0  0  0  0  0  0  0  0  0
  1  2  2  0
  2  3  1  0
  3  4  1  0
  4  5  1  0
  5  6  1  0
  6  7  1  0
  7  8  1  0
  8  9  1  0
  9 10  1  0
 10 11  1  0
  2 12  1  0
 12 13  2  0
 13 14  1  0
 14 15  2  0
 15 16  1  0
 16 17  2  0
 17 18  1  0
 18 19  1  0
 18 20  2  0
 20 21  1  0
  9  4  1  0
 21 12  1  0
 11  6  1  0
 20 14  1  0
  3 22  1  0
  4 23  1  1
  5 24  1  0
  5 25  1  0
  7 26  1  0
  7 27  1  0
  8 28  1  0
  8 29  1  0
  9 30  1  0
 10 31  1  0
 10 32  1  0
 11 33  1  0
 11 34  1  0
 13 35  1  0
 15 36  1  0
 16 37  1  0
 17 38  1  0
M  END
>  <meeko>  (19)
{"is_sidechain": false}

>  <source_group>  (19)
CHRFAM7A at A face

>  <source_system>  (19)
CHRNA7_encenicline

>  <source_run>  (19)
hybrid_A_face_seed5519_ex32

>  <source_seed>  (19)
5519

>  <vina_pose_rank>  (19)
19

>  <vina_affinity_kcal_mol>  (19)
-5.7850000000000001

>  <vina_rmsd_to_crystal_angstrom>  (19)
6.2473999999999998

$$$$
CHRNA7_encenicline__hybrid_A_face_seed5519_ex32__pose20
     RDKit          3D

 38 41  0  0  0  0  0  0  0  0999 V2000
  149.3450  135.6210   92.6200 O   0  0  0  0  0  0  0  0  0  0  0  0
  148.9540  136.4730   91.8960 C   0  0  0  0  0  0  0  0  0  0  0  0
  149.9030  137.3170   91.1970 N   0  0  0  0  0  0  0  0  0  0  0  0
  151.3540  137.1050   91.4010 C   0  0  1  0  0  0  0  0  0  0  0  0
  151.7930  135.7880   90.7300 C   0  0  0  0  0  0  0  0  0  0  0  0
  152.7890  136.0130   89.7760 N   0  0  0  0  0  0  0  0  0  0  0  0
  153.8800  136.6210   90.3580 C   0  0  0  0  0  0  0  0  0  0  0  0
  153.5110  137.9380   90.9730 C   0  0  0  0  0  0  0  0  0  0  0  0
  152.1100  138.1980   90.7970 C   0  0  0  0  0  0  0  0  0  0  0  0
  151.8210  138.2200   89.3650 C   0  0  0  0  0  0  0  0  0  0  0  0
  152.2840  136.8450   88.7470 C   0  0  0  0  0  0  0  0  0  0  0  0
  147.4460  136.6700   91.7030 C   0  0  0  0  0  0  0  0  0  0  0  0
  146.5300  135.6840   91.5640 C   0  0  0  0  0  0  0  0  0  0  0  0
  145.1470  136.0240   91.3920 C   0  0  0  0  0  0  0  0  0  0  0  0
  144.1030  135.1500   91.2410 C   0  0  0  0  0  0  0  0  0  0  0  0
  142.8040  135.6340   91.0810 C   0  0  0  0  0  0  0  0  0  0  0  0
  142.5660  137.0200   91.0750 C   0  0  0  0  0  0  0  0  0  0  0  0
  143.6270  137.9170   91.2300 C   0  0  0  0  0  0  0  0  0  0  0  0
  143.3200  139.6730   91.2230 Cl  0  0  0  0  0  0  0  0  0  0  0  0
  144.9080  137.4430   91.3870 C   0  0  0  0  0  0  0  0  0  0  0  0
  146.5600  138.1660   91.6160 S   0  0  0  0  0  0  0  0  0  0  0  0
  149.5860  138.0250   90.5910 H   0  0  0  0  0  0  0  0  0  0  0  0
  151.5486  137.0636   92.4829 H   0  0  0  0  0  0  0  0  0  0  0  0
  152.1817  135.1054   91.5001 H   0  0  0  0  0  0  0  0  0  0  0  0
  150.9208  135.3475   90.2249 H   0  0  0  0  0  0  0  0  0  0  0  0
  154.2819  135.9609   91.1408 H   0  0  0  0  0  0  0  0  0  0  0  0
  154.6319  136.8034   89.5761 H   0  0  0  0  0  0  0  0  0  0  0  0
  153.7428  137.9136   92.0480 H   0  0  0  0  0  0  0  0  0  0  0  0
  154.0864  138.7355   90.4801 H   0  0  0  0  0  0  0  0  0  0  0  0
  151.8374  139.1568   91.2621 H   0  0  0  0  0  0  0  0  0  0  0  0
  150.7411  138.3551   89.2052 H   0  0  0  0  0  0  0  0  0  0  0  0
  152.3549  139.0520   88.8826 H   0  0  0  0  0  0  0  0  0  0  0  0
  151.4270  136.3525   88.2642 H   0  0  0  0  0  0  0  0  0  0  0  0
  153.0712  137.0244   88.0000 H   0  0  0  0  0  0  0  0  0  0  0  0
  146.8434  134.6297   91.5827 H   0  0  0  0  0  0  0  0  0  0  0  0
  144.2888  134.0658   91.2459 H   0  0  0  0  0  0  0  0  0  0  0  0
  141.9663  134.9315   90.9596 H   0  0  0  0  0  0  0  0  0  0  0  0
  141.5414  137.3996   90.9479 H   0  0  0  0  0  0  0  0  0  0  0  0
  1  2  2  0
  2  3  1  0
  3  4  1  0
  4  5  1  0
  5  6  1  0
  6  7  1  0
  7  8  1  0
  8  9  1  0
  9 10  1  0
 10 11  1  0
  2 12  1  0
 12 13  2  0
 13 14  1  0
 14 15  2  0
 15 16  1  0
 16 17  2  0
 17 18  1  0
 18 19  1  0
 18 20  2  0
 20 21  1  0
  9  4  1  0
 21 12  1  0
 11  6  1  0
 20 14  1  0
  3 22  1  0
  4 23  1  1
  5 24  1  0
  5 25  1  0
  7 26  1  0
  7 27  1  0
  8 28  1  0
  8 29  1  0
  9 30  1  0
 10 31  1  0
 10 32  1  0
 11 33  1  0
 11 34  1  0
 13 35  1  0
 15 36  1  0
 16 37  1  0
 17 38  1  0
M  END
>  <meeko>  (20)
{"is_sidechain": false}

>  <source_group>  (20)
CHRFAM7A at A face

>  <source_system>  (20)
CHRNA7_encenicline

>  <source_run>  (20)
hybrid_A_face_seed5519_ex32

>  <source_seed>  (20)
5519

>  <vina_pose_rank>  (20)
20

>  <vina_affinity_kcal_mol>  (20)
-5.6689999999999996

>  <vina_rmsd_to_crystal_angstrom>  (20)
9.2780000000000005

$$$$
