CHRNA7_encenicline__hybrid_A_face_seed5519_ex32__pose01


 22 25  0  0  0  0  0  0  0  0999 V2000
  142.3780  138.1570   90.8560 O   0  0  0  0  0  0  0  0  0  0  0  0
  142.4210  139.2170   90.3310 C   0  0  0  0  0  0  0  0  0  0  0  0
  141.1920  139.8620   89.9100 N   0  0  0  0  0  0  0  0  0  0  0  0
  141.2190  140.7450   89.4750 H   0  0  0  0  0  0  0  0  0  0  0  0
  143.7760  139.8980   90.1070 C   0  0  0  0  0  0  0  0  0  0  0  0
  144.3340  140.1730   88.9050 C   0  0  0  0  0  0  0  0  0  0  0  0
  145.6140  140.8190   88.8530 C   0  0  0  0  0  0  0  0  0  0  0  0
  146.3090  141.1660   87.7240 C   0  0  0  0  0  0  0  0  0  0  0  0
  147.5510  141.7920   87.8330 C   0  0  0  0  0  0  0  0  0  0  0  0
  148.0900  142.0670   89.1020 C   0  0  0  0  0  0  0  0  0  0  0  0
  147.3850  141.7170   90.2570 C   0  0  0  0  0  0  0  0  0  0  0  0
  148.0730  142.0710   91.8640 Cl  0  0  0  0  0  0  0  0  0  0  0  0
  146.1610  141.1000   90.1530 C   0  0  0  0  0  0  0  0  0  0  0  0
  144.9020  140.4710   91.3030 S   0  0  0  0  0  0  0  0  0  0  0  0
  139.8970  139.1830   90.1390 C   0  0  0  0  0  0  0  0  0  0  0  0
  138.8240  140.2160   90.5360 C   0  0  0  0  0  0  0  0  0  0  0  0
  137.7480  140.1970   89.6450 N   0  0  0  0  0  0  0  0  0  0  0  0
  137.1850  138.9400   89.6010 C   0  0  0  0  0  0  0  0  0  0  0  0
  138.1800  137.9080   89.1600 C   0  0  0  0  0  0  0  0  0  0  0  0
  139.4580  138.5170   88.9160 C   0  0  0  0  0  0  0  0  0  0  0  0
  139.2960  139.5280   87.8750 C   0  0  0  0  0  0  0  0  0  0  0  0
  138.1960  140.5530   88.3490 C   0  0  0  0  0  0  0  0  0  0  0  0
  1  2  2  0
  2  3  1  0
  3 15  1  0
 15 16  1  0
 16 17  1  0
 17 18  1  0
 18 19  1  0
 19 20  1  0
 20 21  1  0
 21 22  1  0
  2  5  1  0
  5  6  2  0
  6  7  1  0
  7  8  2  0
  8  9  1  0
  9 10  2  0
 10 11  1  0
 11 12  1  0
 11 13  2  0
 13 14  1  0
 20 15  1  0
 14  5  1  0
 22 17  1  0
 13  7  1  0
  3  4  1  0
M  END
> <meeko>
{"is_sidechain": false}

> <source_group>
CHRFAM7A at A face

> <source_system>
CHRNA7_encenicline

> <source_run>
hybrid_A_face_seed5519_ex32

> <source_seed>
5519

> <vina_pose_rank>
1

> <vina_affinity_kcal_mol>
-7.5140000000000002

> <vina_rmsd_to_crystal_angstrom>
4.4775999999999998

> <minimizedAffinity>
-7.51050

> <CNNscore>
0.5357710719

> <CNNaffinity>
5.9541792870

> <CNN_VS>
3.1900770664

> <CNNaffinity_variance>
0.0885303244

$$$$
CHRNA7_encenicline__hybrid_A_face_seed5519_ex32__pose02


 22 25  0  0  0  0  0  0  0  0999 V2000
  142.0330  140.4170   90.9430 O   0  0  0  0  0  0  0  0  0  0  0  0
  142.1710  139.2600   90.7340 C   0  0  0  0  0  0  0  0  0  0  0  0
  141.0270  138.4550   90.3500 N   0  0  0  0  0  0  0  0  0  0  0  0
  141.1340  137.4940   90.1720 H   0  0  0  0  0  0  0  0  0  0  0  0
  143.5600  138.6250   90.8680 C   0  0  0  0  0  0  0  0  0  0  0  0
  143.8130  137.3240   91.1390 C   0  0  0  0  0  0  0  0  0  0  0  0
  145.1720  136.8740   91.2330 C   0  0  0  0  0  0  0  0  0  0  0  0
  145.5940  135.5970   91.4970 C   0  0  0  0  0  0  0  0  0  0  0  0
  146.9580  135.3110   91.5580 C   0  0  0  0  0  0  0  0  0  0  0  0
  147.9000  136.3330   91.3490 C   0  0  0  0  0  0  0  0  0  0  0  0
  147.4770  137.6370   91.0780 C   0  0  0  0  0  0  0  0  0  0  0  0
  148.6770  138.9290   90.8120 Cl  0  0  0  0  0  0  0  0  0  0  0  0
  146.1330  137.9220   91.0180 C   0  0  0  0  0  0  0  0  0  0  0  0
  145.1130  139.3950   90.7110 S   0  0  0  0  0  0  0  0  0  0  0  0
  139.6970  139.0940   90.2280 C   0  0  0  0  0  0  0  0  0  0  0  0
  139.3940  139.3970   88.7470 C   0  0  0  0  0  0  0  0  0  0  0  0
  138.2230  138.7600   88.3290 N   0  0  0  0  0  0  0  0  0  0  0  0
  137.1570  139.1550   89.1080 C   0  0  0  0  0  0  0  0  0  0  0  0
  137.3830  138.8230   90.5540 C   0  0  0  0  0  0  0  0  0  0  0  0
  138.6620  138.1940   90.7290 C   0  0  0  0  0  0  0  0  0  0  0  0
  138.6880  136.9720   89.9290 C   0  0  0  0  0  0  0  0  0  0  0  0
  138.3820  137.3560   88.4310 C   0  0  0  0  0  0  0  0  0  0  0  0
  1  2  2  0
  2  3  1  0
  3 15  1  0
 15 16  1  0
 16 17  1  0
 17 18  1  0
 18 19  1  0
 19 20  1  0
 20 21  1  0
 21 22  1  0
  2  5  1  0
  5  6  2  0
  6  7  1  0
  7  8  2  0
  8  9  1  0
  9 10  2  0
 10 11  1  0
 11 12  1  0
 11 13  2  0
 13 14  1  0
 20 15  1  0
 14  5  1  0
 22 17  1  0
 13  7  1  0
  3  4  1  0
M  END
> <meeko>
{"is_sidechain": false}

> <source_group>
CHRFAM7A at A face

> <source_system>
CHRNA7_encenicline

> <source_run>
hybrid_A_face_seed5519_ex32

> <source_seed>
5519

> <vina_pose_rank>
2

> <vina_affinity_kcal_mol>
-7.5099999999999998

> <vina_rmsd_to_crystal_angstrom>
2.0230999999999999

> <minimizedAffinity>
-7.52417

> <CNNscore>
0.7983030677

> <CNNaffinity>
6.5933852196

> <CNN_VS>
5.2635197639

> <CNNaffinity_variance>
0.2626454830

$$$$
CHRNA7_encenicline__hybrid_A_face_seed5519_ex32__pose03


 22 25  0  0  0  0  0  0  0  0999 V2000
  142.8600  138.9650   91.1850 O   0  0  0  0  0  0  0  0  0  0  0  0
  142.7260  139.5530   90.1660 C   0  0  0  0  0  0  0  0  0  0  0  0
  141.3970  139.7660   89.6260 N   0  0  0  0  0  0  0  0  0  0  0  0
  141.2780  140.2560   88.7810 H   0  0  0  0  0  0  0  0  0  0  0  0
  143.9610  140.0860   89.4310 C   0  0  0  0  0  0  0  0  0  0  0  0
  145.0040  140.7330   90.0010 C   0  0  0  0  0  0  0  0  0  0  0  0
  146.0950  141.1740   89.1810 C   0  0  0  0  0  0  0  0  0  0  0  0
  147.2180  141.8360   89.6010 C   0  0  0  0  0  0  0  0  0  0  0  0
  148.1990  142.2030   88.6790 C   0  0  0  0  0  0  0  0  0  0  0  0
  148.0350  141.8940   87.3180 C   0  0  0  0  0  0  0  0  0  0  0  0
  146.8910  141.2170   86.8830 C   0  0  0  0  0  0  0  0  0  0  0  0
  146.6900  140.8260   85.1550 Cl  0  0  0  0  0  0  0  0  0  0  0  0
  145.9240  140.8550   87.7890 C   0  0  0  0  0  0  0  0  0  0  0  0
  144.3220  139.9980   87.7300 S   0  0  0  0  0  0  0  0  0  0  0  0
  140.2210  139.2410   90.3560 C   0  0  0  0  0  0  0  0  0  0  0  0
  139.1870  140.3640   90.5640 C   0  0  0  0  0  0  0  0  0  0  0  0
  137.9570  140.0320   89.9920 N   0  0  0  0  0  0  0  0  0  0  0  0
  137.4780  138.8580   90.5310 C   0  0  0  0  0  0  0  0  0  0  0  0
  138.4280  137.7210   90.2980 C   0  0  0  0  0  0  0  0  0  0  0  0
  139.5880  138.1750   89.5840 C   0  0  0  0  0  0  0  0  0  0  0  0
  139.1540  138.7310   88.3050 C   0  0  0  0  0  0  0  0  0  0  0  0
  138.1100  139.8750   88.5920 C   0  0  0  0  0  0  0  0  0  0  0  0
  1  2  2  0
  2  3  1  0
  3 15  1  0
 15 16  1  0
 16 17  1  0
 17 18  1  0
 18 19  1  0
 19 20  1  0
 20 21  1  0
 21 22  1  0
  2  5  1  0
  5  6  2  0
  6  7  1  0
  7  8  2  0
  8  9  1  0
  9 10  2  0
 10 11  1  0
 11 12  1  0
 11 13  2  0
 13 14  1  0
 20 15  1  0
 14  5  1  0
 22 17  1  0
 13  7  1  0
  3  4  1  0
M  END
> <meeko>
{"is_sidechain": false}

> <source_group>
CHRFAM7A at A face

> <source_system>
CHRNA7_encenicline

> <source_run>
hybrid_A_face_seed5519_ex32

> <source_seed>
5519

> <vina_pose_rank>
3

> <vina_affinity_kcal_mol>
-7.3769999999999998

> <vina_rmsd_to_crystal_angstrom>
4.9252000000000002

> <minimizedAffinity>
-7.39773

> <CNNscore>
0.7334224582

> <CNNaffinity>
6.3304133415

> <CNN_VS>
4.6428670883

> <CNNaffinity_variance>
0.2517980337

$$$$
CHRNA7_encenicline__hybrid_A_face_seed5519_ex32__pose04


 22 25  0  0  0  0  0  0  0  0999 V2000
  142.1840  140.1940   90.7800 O   0  0  0  0  0  0  0  0  0  0  0  0
  142.2130  139.0190   90.6330 C   0  0  0  0  0  0  0  0  0  0  0  0
  140.9860  138.2970   90.3580 N   0  0  0  0  0  0  0  0  0  0  0  0
  141.0020  137.3210   90.2320 H   0  0  0  0  0  0  0  0  0  0  0  0
  143.5500  138.2750   90.7310 C   0  0  0  0  0  0  0  0  0  0  0  0
  144.7610  138.7770   90.3950 C   0  0  0  0  0  0  0  0  0  0  0  0
  145.9300  137.9580   90.5450 C   0  0  0  0  0  0  0  0  0  0  0  0
  147.2200  138.3140   90.2530 C   0  0  0  0  0  0  0  0  0  0  0  0
  148.2580  137.4030   90.4510 C   0  0  0  0  0  0  0  0  0  0  0  0
  147.9800  136.1180   90.9480 C   0  0  0  0  0  0  0  0  0  0  0  0
  146.6650  135.7480   91.2480 C   0  0  0  0  0  0  0  0  0  0  0  0
  146.3190  134.1180   91.8810 Cl  0  0  0  0  0  0  0  0  0  0  0  0
  145.6410  136.6440   91.0550 C   0  0  0  0  0  0  0  0  0  0  0  0
  143.8370  136.6490   91.2820 S   0  0  0  0  0  0  0  0  0  0  0  0
  139.7080  139.0400   90.2680 C   0  0  0  0  0  0  0  0  0  0  0  0
  139.4300  139.4320   88.8030 C   0  0  0  0  0  0  0  0  0  0  0  0
  138.2140  138.9060   88.3610 N   0  0  0  0  0  0  0  0  0  0  0  0
  137.1820  139.3460   89.1600 C   0  0  0  0  0  0  0  0  0  0  0  0
  137.3810  138.9340   90.5890 C   0  0  0  0  0  0  0  0  0  0  0  0
  138.6080  138.2010   90.7320 C   0  0  0  0  0  0  0  0  0  0  0  0
  138.5400  137.0180   89.8780 C   0  0  0  0  0  0  0  0  0  0  0  0
  138.2650  137.4910   88.4000 C   0  0  0  0  0  0  0  0  0  0  0  0
  1  2  2  0
  2  3  1  0
  3 15  1  0
 15 16  1  0
 16 17  1  0
 17 18  1  0
 18 19  1  0
 19 20  1  0
 20 21  1  0
 21 22  1  0
  2  5  1  0
  5  6  2  0
  6  7  1  0
  7  8  2  0
  8  9  1  0
  9 10  2  0
 10 11  1  0
 11 12  1  0
 11 13  2  0
 13 14  1  0
 20 15  1  0
 14  5  1  0
 22 17  1  0
 13  7  1  0
  3  4  1  0
M  END
> <meeko>
{"is_sidechain": false}

> <source_group>
CHRFAM7A at A face

> <source_system>
CHRNA7_encenicline

> <source_run>
hybrid_A_face_seed5519_ex32

> <source_seed>
5519

> <vina_pose_rank>
4

> <vina_affinity_kcal_mol>
-7.3250000000000002

> <vina_rmsd_to_crystal_angstrom>
2.5276000000000001

> <minimizedAffinity>
-7.37506

> <CNNscore>
0.9435166121

> <CNNaffinity>
6.7572703362

> <CNN_VS>
6.3755970001

> <CNNaffinity_variance>
0.3763104379

$$$$
CHRNA7_encenicline__hybrid_A_face_seed5519_ex32__pose05


 22 25  0  0  0  0  0  0  0  0999 V2000
  144.7380  139.7220   91.3810 O   0  0  0  0  0  0  0  0  0  0  0  0
  144.2290  138.6640   91.2270 C   0  0  0  0  0  0  0  0  0  0  0  0
  145.0040  137.4550   91.4310 N   0  0  0  0  0  0  0  0  0  0  0  0
  144.5870  136.5720   91.3080 H   0  0  0  0  0  0  0  0  0  0  0  0
  142.7540  138.5840   90.8190 C   0  0  0  0  0  0  0  0  0  0  0  0
  141.9960  137.4630   90.8030 C   0  0  0  0  0  0  0  0  0  0  0  0
  140.6220  137.5450   90.3970 C   0  0  0  0  0  0  0  0  0  0  0  0
  139.7270  136.5110   90.3290 C   0  0  0  0  0  0  0  0  0  0  0  0
  138.4170  136.7470   89.9110 C   0  0  0  0  0  0  0  0  0  0  0  0
  138.0150  138.0470   89.5590 C   0  0  0  0  0  0  0  0  0  0  0  0
  138.9240  139.1080   89.6270 C   0  0  0  0  0  0  0  0  0  0  0  0
  138.4080  140.7550   89.1820 Cl  0  0  0  0  0  0  0  0  0  0  0  0
  140.2150  138.8770   90.0380 C   0  0  0  0  0  0  0  0  0  0  0  0
  141.7140  139.8750   90.2870 S   0  0  0  0  0  0  0  0  0  0  0  0
  146.4270  137.5610   91.8260 C   0  0  0  0  0  0  0  0  0  0  0  0
  146.8660  136.2770   92.5570 C   0  0  0  0  0  0  0  0  0  0  0  0
  147.9380  135.6630   91.9040 N   0  0  0  0  0  0  0  0  0  0  0  0
  149.0040  136.5300   91.8140 C   0  0  0  0  0  0  0  0  0  0  0  0
  148.6390  137.7710   91.0550 C   0  0  0  0  0  0  0  0  0  0  0  0
  147.2640  137.7190   90.6400 C   0  0  0  0  0  0  0  0  0  0  0  0
  147.0840  136.5450   89.7900 C   0  0  0  0  0  0  0  0  0  0  0  0
  147.5410  135.2730   90.6010 C   0  0  0  0  0  0  0  0  0  0  0  0
  1  2  2  0
  2  3  1  0
  3 15  1  0
 15 16  1  0
 16 17  1  0
 17 18  1  0
 18 19  1  0
 19 20  1  0
 20 21  1  0
 21 22  1  0
  2  5  1  0
  5  6  2  0
  6  7  1  0
  7  8  2  0
  8  9  1  0
  9 10  2  0
 10 11  1  0
 11 12  1  0
 11 13  2  0
 13 14  1  0
 20 15  1  0
 14  5  1  0
 22 17  1  0
 13  7  1  0
  3  4  1  0
M  END
> <meeko>
{"is_sidechain": false}

> <source_group>
CHRFAM7A at A face

> <source_system>
CHRNA7_encenicline

> <source_run>
hybrid_A_face_seed5519_ex32

> <source_seed>
5519

> <vina_pose_rank>
5

> <vina_affinity_kcal_mol>
-6.5419999999999998

> <vina_rmsd_to_crystal_angstrom>
7.6477000000000004

> <minimizedAffinity>
-6.60867

> <CNNscore>
0.1963753700

> <CNNaffinity>
5.0637669563

> <CNN_VS>
0.9943991303

> <CNNaffinity_variance>
0.3438510597

$$$$
CHRNA7_encenicline__hybrid_A_face_seed5519_ex32__pose06


 22 25  0  0  0  0  0  0  0  0999 V2000
  142.1960  137.9690   90.8140 O   0  0  0  0  0  0  0  0  0  0  0  0
  142.2660  139.1310   90.5980 C   0  0  0  0  0  0  0  0  0  0  0  0
  141.0630  139.8780   90.2820 N   0  0  0  0  0  0  0  0  0  0  0  0
  141.1120  140.8450   90.1040 H   0  0  0  0  0  0  0  0  0  0  0  0
  143.6260  139.8340   90.6590 C   0  0  0  0  0  0  0  0  0  0  0  0
  144.2810  140.1950   91.7870 C   0  0  0  0  0  0  0  0  0  0  0  0
  145.5550  140.8470   91.6860 C   0  0  0  0  0  0  0  0  0  0  0  0
  146.3410  141.2720   92.7250 C   0  0  0  0  0  0  0  0  0  0  0  0
  147.5620  141.8950   92.4670 C   0  0  0  0  0  0  0  0  0  0  0  0
  147.9870  142.0890   91.1420 C   0  0  0  0  0  0  0  0  0  0  0  0
  147.1900  141.6570   90.0770 C   0  0  0  0  0  0  0  0  0  0  0  0
  147.7350  141.9030   88.3970 Cl  0  0  0  0  0  0  0  0  0  0  0  0
  145.9860  141.0420   90.3280 C   0  0  0  0  0  0  0  0  0  0  0  0
  144.6410  140.3290   89.3340 S   0  0  0  0  0  0  0  0  0  0  0  0
  139.7620  139.1750   90.2300 C   0  0  0  0  0  0  0  0  0  0  0  0
  138.6210  140.1550   90.5690 C   0  0  0  0  0  0  0  0  0  0  0  0
  137.6960  140.2340   89.5250 N   0  0  0  0  0  0  0  0  0  0  0  0
  137.1700  138.9900   89.2540 C   0  0  0  0  0  0  0  0  0  0  0  0
  138.2410  138.0170   88.8600 C   0  0  0  0  0  0  0  0  0  0  0  0
  139.5300  138.6510   88.8870 C   0  0  0  0  0  0  0  0  0  0  0  0
  139.5100  139.7740   87.9530 C   0  0  0  0  0  0  0  0  0  0  0  0
  138.3310  140.7370   88.3620 C   0  0  0  0  0  0  0  0  0  0  0  0
  1  2  2  0
  2  3  1  0
  3 15  1  0
 15 16  1  0
 16 17  1  0
 17 18  1  0
 18 19  1  0
 19 20  1  0
 20 21  1  0
 21 22  1  0
  2  5  1  0
  5  6  2  0
  6  7  1  0
  7  8  2  0
  8  9  1  0
  9 10  2  0
 10 11  1  0
 11 12  1  0
 11 13  2  0
 13 14  1  0
 20 15  1  0
 14  5  1  0
 22 17  1  0
 13  7  1  0
  3  4  1  0
M  END
> <meeko>
{"is_sidechain": false}

> <source_group>
CHRFAM7A at A face

> <source_system>
CHRNA7_encenicline

> <source_run>
hybrid_A_face_seed5519_ex32

> <source_seed>
5519

> <vina_pose_rank>
6

> <vina_affinity_kcal_mol>
-6.4349999999999996

> <vina_rmsd_to_crystal_angstrom>
4.2782

> <minimizedAffinity>
-6.49044

> <CNNscore>
0.5574544072

> <CNNaffinity>
6.2130856514

> <CNN_VS>
3.4635119438

> <CNNaffinity_variance>
0.1662960947

$$$$
CHRNA7_encenicline__hybrid_A_face_seed5519_ex32__pose07


 22 25  0  0  0  0  0  0  0  0999 V2000
  144.4560  140.2350   90.4930 O   0  0  0  0  0  0  0  0  0  0  0  0
  144.0910  139.1150   90.6170 C   0  0  0  0  0  0  0  0  0  0  0  0
  145.0590  138.0680   90.8820 N   0  0  0  0  0  0  0  0  0  0  0  0
  144.7640  137.1350   90.9880 H   0  0  0  0  0  0  0  0  0  0  0  0
  142.5990  138.7860   90.5000 C   0  0  0  0  0  0  0  0  0  0  0  0
  141.6150  139.6670   90.2040 C   0  0  0  0  0  0  0  0  0  0  0  0
  140.2570  139.2080   90.1270 C   0  0  0  0  0  0  0  0  0  0  0  0
  139.1540  139.9670   89.8380 C   0  0  0  0  0  0  0  0  0  0  0  0
  137.8910  139.3760   89.8010 C   0  0  0  0  0  0  0  0  0  0  0  0
  137.7490  138.0020   90.0590 C   0  0  0  0  0  0  0  0  0  0  0  0
  138.8720  137.2220   90.3530 C   0  0  0  0  0  0  0  0  0  0  0  0
  138.6870  135.4790   90.6780 Cl  0  0  0  0  0  0  0  0  0  0  0  0
  140.1170  137.8010   90.3910 C   0  0  0  0  0  0  0  0  0  0  0  0
  141.8180  137.2450   90.7120 S   0  0  0  0  0  0  0  0  0  0  0  0
  146.4950  138.4140   90.9900 C   0  0  0  0  0  0  0  0  0  0  0  0
  147.1590  137.5610   92.0890 C   0  0  0  0  0  0  0  0  0  0  0  0
  148.2170  136.8070   91.5740 N   0  0  0  0  0  0  0  0  0  0  0  0
  149.1580  137.6330   90.9990 C   0  0  0  0  0  0  0  0  0  0  0  0
  148.5680  138.4400   89.8810 C   0  0  0  0  0  0  0  0  0  0  0  0
  147.1720  138.1380   89.7270 C   0  0  0  0  0  0  0  0  0  0  0  0
  147.0390  136.7130   89.4350 C   0  0  0  0  0  0  0  0  0  0  0  0
  147.7280  135.9040   90.5980 C   0  0  0  0  0  0  0  0  0  0  0  0
  1  2  2  0
  2  3  1  0
  3 15  1  0
 15 16  1  0
 16 17  1  0
 17 18  1  0
 18 19  1  0
 19 20  1  0
 20 21  1  0
 21 22  1  0
  2  5  1  0
  5  6  2  0
  6  7  1  0
  7  8  2  0
  8  9  1  0
  9 10  2  0
 10 11  1  0
 11 12  1  0
 11 13  2  0
 13 14  1  0
 20 15  1  0
 14  5  1  0
 22 17  1  0
 13  7  1  0
  3  4  1  0
M  END
> <meeko>
{"is_sidechain": false}

> <source_group>
CHRFAM7A at A face

> <source_system>
CHRNA7_encenicline

> <source_run>
hybrid_A_face_seed5519_ex32

> <source_seed>
5519

> <vina_pose_rank>
7

> <vina_affinity_kcal_mol>
-6.3860000000000001

> <vina_rmsd_to_crystal_angstrom>
7.5778999999999996

> <minimizedAffinity>
-6.40807

> <CNNscore>
0.3554814756

> <CNNaffinity>
5.5999531746

> <CNN_VS>
1.9906796217

> <CNNaffinity_variance>
0.3231037259

$$$$
CHRNA7_encenicline__hybrid_A_face_seed5519_ex32__pose08


 22 25  0  0  0  0  0  0  0  0999 V2000
  144.3910  142.0070   92.6790 O   0  0  0  0  0  0  0  0  0  0  0  0
  143.9540  141.0470   93.2180 C   0  0  0  0  0  0  0  0  0  0  0  0
  142.8920  141.1890   94.1940 N   0  0  0  0  0  0  0  0  0  0  0  0
  142.5220  140.3960   94.6440 H   0  0  0  0  0  0  0  0  0  0  0  0
  144.5160  139.6630   92.8730 C   0  0  0  0  0  0  0  0  0  0  0  0
  143.7850  138.5610   92.5860 C   0  0  0  0  0  0  0  0  0  0  0  0
  144.4550  137.3300   92.2790 C   0  0  0  0  0  0  0  0  0  0  0  0
  143.8640  136.1340   91.9680 C   0  0  0  0  0  0  0  0  0  0  0  0
  144.6530  135.0160   91.6930 C   0  0  0  0  0  0  0  0  0  0  0  0
  146.0540  135.1170   91.7350 C   0  0  0  0  0  0  0  0  0  0  0  0
  146.6630  136.3350   92.0520 C   0  0  0  0  0  0  0  0  0  0  0  0
  148.4410  136.4580   92.1030 Cl  0  0  0  0  0  0  0  0  0  0  0  0
  145.8890  137.4370   92.3230 C   0  0  0  0  0  0  0  0  0  0  0  0
  146.1840  139.1750   92.7680 S   0  0  0  0  0  0  0  0  0  0  0  0
  142.3670  142.5380   94.5080 C   0  0  0  0  0  0  0  0  0  0  0  0
  140.8570  142.5980   94.2060 C   0  0  0  0  0  0  0  0  0  0  0  0
  140.1260  142.9400   95.3460 N   0  0  0  0  0  0  0  0  0  0  0  0
  140.5460  144.1560   95.8390 C   0  0  0  0  0  0  0  0  0  0  0  0
  142.0010  144.1250   96.2040 C   0  0  0  0  0  0  0  0  0  0  0  0
  142.5610  142.8330   95.9250 C   0  0  0  0  0  0  0  0  0  0  0  0
  141.8310  141.8360   96.7050 C   0  0  0  0  0  0  0  0  0  0  0  0
  140.3020  141.9470   96.3410 C   0  0  0  0  0  0  0  0  0  0  0  0
  1  2  2  0
  2  3  1  0
  3 15  1  0
 15 16  1  0
 16 17  1  0
 17 18  1  0
 18 19  1  0
 19 20  1  0
 20 21  1  0
 21 22  1  0
  2  5  1  0
  5  6  2  0
  6  7  1  0
  7  8  2  0
  8  9  1  0
  9 10  2  0
 10 11  1  0
 11 12  1  0
 11 13  2  0
 13 14  1  0
 20 15  1  0
 14  5  1  0
 22 17  1  0
 13  7  1  0
  3  4  1  0
M  END
> <meeko>
{"is_sidechain": false}

> <source_group>
CHRFAM7A at A face

> <source_system>
CHRNA7_encenicline

> <source_run>
hybrid_A_face_seed5519_ex32

> <source_seed>
5519

> <vina_pose_rank>
8

> <vina_affinity_kcal_mol>
-6.3230000000000004

> <vina_rmsd_to_crystal_angstrom>
4.8658999999999999

> <minimizedAffinity>
-6.32759

> <CNNscore>
0.1999533176

> <CNNaffinity>
5.0667014122

> <CNN_VS>
1.0131037235

> <CNNaffinity_variance>
0.7473015189

$$$$
CHRNA7_encenicline__hybrid_A_face_seed5519_ex32__pose09


 22 25  0  0  0  0  0  0  0  0999 V2000
  146.2890  140.4970   92.5580 O   0  0  0  0  0  0  0  0  0  0  0  0
  145.2070  140.0200   92.4870 C   0  0  0  0  0  0  0  0  0  0  0  0
  145.0300  138.7240   91.8610 N   0  0  0  0  0  0  0  0  0  0  0  0
  144.1350  138.3200   91.8000 H   0  0  0  0  0  0  0  0  0  0  0  0
  144.0050  140.7790   93.0620 C   0  0  0  0  0  0  0  0  0  0  0  0
  142.9150  141.1770   92.3670 C   0  0  0  0  0  0  0  0  0  0  0  0
  141.8630  141.8800   93.0450 C   0  0  0  0  0  0  0  0  0  0  0  0
  140.7010  142.3460   92.4900 C   0  0  0  0  0  0  0  0  0  0  0  0
  139.7680  143.0160   93.2820 C   0  0  0  0  0  0  0  0  0  0  0  0
  140.0210  143.2140   94.6500 C   0  0  0  0  0  0  0  0  0  0  0  0
  141.2050  142.7390   95.2230 C   0  0  0  0  0  0  0  0  0  0  0  0
  141.5190  142.9910   96.9600 Cl  0  0  0  0  0  0  0  0  0  0  0  0
  142.1250  142.0790   94.4450 C   0  0  0  0  0  0  0  0  0  0  0  0
  143.7490  141.3020   94.7020 S   0  0  0  0  0  0  0  0  0  0  0  0
  146.2080  138.0130   91.3140 C   0  0  0  0  0  0  0  0  0  0  0  0
  146.7460  137.0100   92.3540 C   0  0  0  0  0  0  0  0  0  0  0  0
  146.7460  135.7080   91.8480 N   0  0  0  0  0  0  0  0  0  0  0  0
  147.5080  135.6380   90.7020 C   0  0  0  0  0  0  0  0  0  0  0  0
  146.9830  136.5570   89.6380 C   0  0  0  0  0  0  0  0  0  0  0  0
  145.8310  137.2700   90.1150 C   0  0  0  0  0  0  0  0  0  0  0  0
  144.8060  136.2960   90.4820 C   0  0  0  0  0  0  0  0  0  0  0  0
  145.4180  135.3120   91.5500 C   0  0  0  0  0  0  0  0  0  0  0  0
  1  2  2  0
  2  3  1  0
  3 15  1  0
 15 16  1  0
 16 17  1  0
 17 18  1  0
 18 19  1  0
 19 20  1  0
 20 21  1  0
 21 22  1  0
  2  5  1  0
  5  6  2  0
  6  7  1  0
  7  8  2  0
  8  9  1  0
  9 10  2  0
 10 11  1  0
 11 12  1  0
 11 13  2  0
 13 14  1  0
 20 15  1  0
 14  5  1  0
 22 17  1  0
 13  7  1  0
  3  4  1  0
M  END
> <meeko>
{"is_sidechain": false}

> <source_group>
CHRFAM7A at A face

> <source_system>
CHRNA7_encenicline

> <source_run>
hybrid_A_face_seed5519_ex32

> <source_seed>
5519

> <vina_pose_rank>
9

> <vina_affinity_kcal_mol>
-6.3019999999999996

> <vina_rmsd_to_crystal_angstrom>
7.8346

> <minimizedAffinity>
-6.32179

> <CNNscore>
0.0861219391

> <CNNaffinity>
4.2739334106

> <CNN_VS>
0.3680794239

> <CNNaffinity_variance>
0.3673300743

$$$$
CHRNA7_encenicline__hybrid_A_face_seed5519_ex32__pose10


 22 25  0  0  0  0  0  0  0  0999 V2000
  141.7280  140.7590   91.4710 O   0  0  0  0  0  0  0  0  0  0  0  0
  142.0990  140.0920   90.5650 C   0  0  0  0  0  0  0  0  0  0  0  0
  141.1300  139.4840   89.6740 N   0  0  0  0  0  0  0  0  0  0  0  0
  141.4300  138.9300   88.9190 H   0  0  0  0  0  0  0  0  0  0  0  0
  143.6010  139.8810   90.3440 C   0  0  0  0  0  0  0  0  0  0  0  0
  144.5150  139.6290   91.3090 C   0  0  0  0  0  0  0  0  0  0  0  0
  145.8930  139.4510   90.9480 C   0  0  0  0  0  0  0  0  0  0  0  0
  146.9340  139.1900   91.7980 C   0  0  0  0  0  0  0  0  0  0  0  0
  148.2270  139.0430   91.2960 C   0  0  0  0  0  0  0  0  0  0  0  0
  148.4620  139.1640   89.9150 C   0  0  0  0  0  0  0  0  0  0  0  0
  147.4030  139.4300   89.0410 C   0  0  0  0  0  0  0  0  0  0  0  0
  147.7070  139.5800   87.2910 Cl  0  0  0  0  0  0  0  0  0  0  0  0
  146.1290  139.5750   89.5340 C   0  0  0  0  0  0  0  0  0  0  0  0
  144.4820  139.9130   88.8430 S   0  0  0  0  0  0  0  0  0  0  0  0
  139.6850  139.7040   89.9110 C   0  0  0  0  0  0  0  0  0  0  0  0
  138.9480  139.8480   88.5640 C   0  0  0  0  0  0  0  0  0  0  0  0
  137.9470  138.8830   88.4290 N   0  0  0  0  0  0  0  0  0  0  0  0
  137.0420  138.9830   89.4630 C   0  0  0  0  0  0  0  0  0  0  0  0
  137.7070  138.7880   90.7940 C   0  0  0  0  0  0  0  0  0  0  0  0
  139.1150  138.5630   90.6220 C   0  0  0  0  0  0  0  0  0  0  0  0
  139.2940  137.3710   89.7970 C   0  0  0  0  0  0  0  0  0  0  0  0
  138.5270  137.5910   88.4380 C   0  0  0  0  0  0  0  0  0  0  0  0
  1  2  2  0
  2  3  1  0
  3 15  1  0
 15 16  1  0
 16 17  1  0
 17 18  1  0
 18 19  1  0
 19 20  1  0
 20 21  1  0
 21 22  1  0
  2  5  1  0
  5  6  2  0
  6  7  1  0
  7  8  2  0
  8  9  1  0
  9 10  2  0
 10 11  1  0
 11 12  1  0
 11 13  2  0
 13 14  1  0
 20 15  1  0
 14  5  1  0
 22 17  1  0
 13  7  1  0
  3  4  1  0
M  END
> <meeko>
{"is_sidechain": false}

> <source_group>
CHRFAM7A at A face

> <source_system>
CHRNA7_encenicline

> <source_run>
hybrid_A_face_seed5519_ex32

> <source_seed>
5519

> <vina_pose_rank>
10

> <vina_affinity_kcal_mol>
-6.2910000000000004

> <vina_rmsd_to_crystal_angstrom>
3.3574999999999999

> <minimizedAffinity>
-6.30164

> <CNNscore>
0.8875221014

> <CNNaffinity>
6.4737076759

> <CNN_VS>
5.7455587387

> <CNNaffinity_variance>
0.1545675546

$$$$
CHRNA7_encenicline__hybrid_A_face_seed5519_ex32__pose11


 22 25  0  0  0  0  0  0  0  0999 V2000
  144.5890  139.4770   91.5950 O   0  0  0  0  0  0  0  0  0  0  0  0
  144.0410  139.4360   90.5470 C   0  0  0  0  0  0  0  0  0  0  0  0
  144.7600  139.8070   89.3430 N   0  0  0  0  0  0  0  0  0  0  0  0
  144.3120  139.7740   88.4670 H   0  0  0  0  0  0  0  0  0  0  0  0
  142.5770  138.9870   90.4730 C   0  0  0  0  0  0  0  0  0  0  0  0
  141.5120  139.7940   90.2580 C   0  0  0  0  0  0  0  0  0  0  0  0
  140.1950  139.2260   90.2140 C   0  0  0  0  0  0  0  0  0  0  0  0
  139.0210  139.9010   90.0050 C   0  0  0  0  0  0  0  0  0  0  0  0
  137.8100  139.2080   89.9900 C   0  0  0  0  0  0  0  0  0  0  0  0
  137.7940  137.8170   90.1890 C   0  0  0  0  0  0  0  0  0  0  0  0
  138.9890  137.1220   90.4010 C   0  0  0  0  0  0  0  0  0  0  0  0
  138.9630  135.3570   90.6510 Cl  0  0  0  0  0  0  0  0  0  0  0  0
  140.1830  137.8020   90.4170 C   0  0  0  0  0  0  0  0  0  0  0  0
  141.9360  137.3780   90.6430 S   0  0  0  0  0  0  0  0  0  0  0  0
  146.1730  140.2370   89.4420 C   0  0  0  0  0  0  0  0  0  0  0  0
  147.1030  139.0940   88.9870 C   0  0  0  0  0  0  0  0  0  0  0  0
  147.9080  139.4930   87.9160 N   0  0  0  0  0  0  0  0  0  0  0  0
  148.6630  140.5900   88.2670 C   0  0  0  0  0  0  0  0  0  0  0  0
  147.7950  141.7490   88.6600 C   0  0  0  0  0  0  0  0  0  0  0  0
  146.4080  141.3880   88.5760 C   0  0  0  0  0  0  0  0  0  0  0  0
  146.1170  140.9940   87.1990 C   0  0  0  0  0  0  0  0  0  0  0  0
  147.0930  139.8210   86.8050 C   0  0  0  0  0  0  0  0  0  0  0  0
  1  2  2  0
  2  3  1  0
  3 15  1  0
 15 16  1  0
 16 17  1  0
 17 18  1  0
 18 19  1  0
 19 20  1  0
 20 21  1  0
 21 22  1  0
  2  5  1  0
  5  6  2  0
  6  7  1  0
  7  8  2  0
  8  9  1  0
  9 10  2  0
 10 11  1  0
 11 12  1  0
 11 13  2  0
 13 14  1  0
 20 15  1  0
 14  5  1  0
 22 17  1  0
 13  7  1  0
  3  4  1  0
M  END
> <meeko>
{"is_sidechain": false}

> <source_group>
CHRFAM7A at A face

> <source_system>
CHRNA7_encenicline

> <source_run>
hybrid_A_face_seed5519_ex32

> <source_seed>
5519

> <vina_pose_rank>
11

> <vina_affinity_kcal_mol>
-6.2640000000000002

> <vina_rmsd_to_crystal_angstrom>
6.9866999999999999

> <minimizedAffinity>
-6.27912

> <CNNscore>
0.5295637250

> <CNNaffinity>
5.8875617981

> <CNN_VS>
3.1178390980

> <CNNaffinity_variance>
0.1591438651

$$$$
CHRNA7_encenicline__hybrid_A_face_seed5519_ex32__pose12


 22 25  0  0  0  0  0  0  0  0999 V2000
  146.1300  140.2010   93.1700 O   0  0  0  0  0  0  0  0  0  0  0  0
  145.0300  139.8320   92.9360 C   0  0  0  0  0  0  0  0  0  0  0  0
  144.8230  138.6700   92.0940 N   0  0  0  0  0  0  0  0  0  0  0  0
  143.9120  138.3550   91.8970 H   0  0  0  0  0  0  0  0  0  0  0  0
  143.8350  140.5860   93.5300 C   0  0  0  0  0  0  0  0  0  0  0  0
  143.5440  140.6970   94.8470 C   0  0  0  0  0  0  0  0  0  0  0  0
  142.3870  141.4410   95.2550 C   0  0  0  0  0  0  0  0  0  0  0  0
  141.9590  141.6480   96.5390 C   0  0  0  0  0  0  0  0  0  0  0  0
  140.8060  142.3960   96.7790 C   0  0  0  0  0  0  0  0  0  0  0  0
  140.0840  142.9390   95.7030 C   0  0  0  0  0  0  0  0  0  0  0  0
  140.5160  142.7330   94.3890 C   0  0  0  0  0  0  0  0  0  0  0  0
  139.5970  143.4260   93.0280 Cl  0  0  0  0  0  0  0  0  0  0  0  0
  141.6510  141.9950   94.1500 C   0  0  0  0  0  0  0  0  0  0  0  0
  142.5900  141.4630   92.6870 S   0  0  0  0  0  0  0  0  0  0  0  0
  145.9950  137.9590   91.5330 C   0  0  0  0  0  0  0  0  0  0  0  0
  146.4870  136.8910   92.5290 C   0  0  0  0  0  0  0  0  0  0  0  0
  146.4670  135.6170   91.9550 N   0  0  0  0  0  0  0  0  0  0  0  0
  147.2510  135.5880   90.8220 C   0  0  0  0  0  0  0  0  0  0  0  0
  146.7700  136.5740   89.7980 C   0  0  0  0  0  0  0  0  0  0  0  0
  145.6250  137.2890   90.2900 C   0  0  0  0  0  0  0  0  0  0  0  0
  144.5700  136.3230   90.5850 C   0  0  0  0  0  0  0  0  0  0  0  0
  145.1370  135.2700   91.6120 C   0  0  0  0  0  0  0  0  0  0  0  0
  1  2  2  0
  2  3  1  0
  3 15  1  0
 15 16  1  0
 16 17  1  0
 17 18  1  0
 18 19  1  0
 19 20  1  0
 20 21  1  0
 21 22  1  0
  2  5  1  0
  5  6  2  0
  6  7  1  0
  7  8  2  0
  8  9  1  0
  9 10  2  0
 10 11  1  0
 11 12  1  0
 11 13  2  0
 13 14  1  0
 20 15  1  0
 14  5  1  0
 22 17  1  0
 13  7  1  0
  3  4  1  0
M  END
> <meeko>
{"is_sidechain": false}

> <source_group>
CHRFAM7A at A face

> <source_system>
CHRNA7_encenicline

> <source_run>
hybrid_A_face_seed5519_ex32

> <source_seed>
5519

> <vina_pose_rank>
12

> <vina_affinity_kcal_mol>
-6.1550000000000002

> <vina_rmsd_to_crystal_angstrom>
7.8855000000000004

> <minimizedAffinity>
-6.21204

> <CNNscore>
0.0864718929

> <CNNaffinity>
4.2995891571

> <CNN_VS>
0.3717936277

> <CNNaffinity_variance>
0.4396859109

$$$$
CHRNA7_encenicline__hybrid_A_face_seed5519_ex32__pose13


 22 25  0  0  0  0  0  0  0  0999 V2000
  145.3760  140.9110   94.5960 O   0  0  0  0  0  0  0  0  0  0  0  0
  144.6050  141.2800   93.7770 C   0  0  0  0  0  0  0  0  0  0  0  0
  143.3230  141.8220   94.1860 N   0  0  0  0  0  0  0  0  0  0  0  0
  142.6780  142.1330   93.5110 H   0  0  0  0  0  0  0  0  0  0  0  0
  144.9720  141.1830   92.2910 C   0  0  0  0  0  0  0  0  0  0  0  0
  144.2530  140.5450   91.3390 C   0  0  0  0  0  0  0  0  0  0  0  0
  144.7250  140.5420   89.9830 C   0  0  0  0  0  0  0  0  0  0  0  0
  144.1180  139.9470   88.9090 C   0  0  0  0  0  0  0  0  0  0  0  0
  144.7010  140.0290   87.6440 C   0  0  0  0  0  0  0  0  0  0  0  0
  145.9120  140.7220   87.4720 C   0  0  0  0  0  0  0  0  0  0  0  0
  146.5360  141.3320   88.5650 C   0  0  0  0  0  0  0  0  0  0  0  0
  148.0710  142.2110   88.3400 Cl  0  0  0  0  0  0  0  0  0  0  0  0
  145.9640  141.2520   89.8110 C   0  0  0  0  0  0  0  0  0  0  0  0
  146.3610  141.8490   91.4820 S   0  0  0  0  0  0  0  0  0  0  0  0
  142.9940  141.9040   95.6270 C   0  0  0  0  0  0  0  0  0  0  0  0
  143.2280  143.3400   96.1380 C   0  0  0  0  0  0  0  0  0  0  0  0
  142.0580  143.8830   96.6750 N   0  0  0  0  0  0  0  0  0  0  0  0
  141.5920  143.0960   97.7050 C   0  0  0  0  0  0  0  0  0  0  0  0
  141.2930  141.7020   97.2380 C   0  0  0  0  0  0  0  0  0  0  0  0
  141.5900  141.5680   95.8390 C   0  0  0  0  0  0  0  0  0  0  0  0
  140.7710  142.5260   95.1010 C   0  0  0  0  0  0  0  0  0  0  0  0
  141.0660  143.9670   95.6660 C   0  0  0  0  0  0  0  0  0  0  0  0
  1  2  2  0
  2  3  1  0
  3 15  1  0
 15 16  1  0
 16 17  1  0
 17 18  1  0
 18 19  1  0
 19 20  1  0
 20 21  1  0
 21 22  1  0
  2  5  1  0
  5  6  2  0
  6  7  1  0
  7  8  2  0
  8  9  1  0
  9 10  2  0
 10 11  1  0
 11 12  1  0
 11 13  2  0
 13 14  1  0
 20 15  1  0
 14  5  1  0
 22 17  1  0
 13  7  1  0
  3  4  1  0
M  END
> <meeko>
{"is_sidechain": false}

> <source_group>
CHRFAM7A at A face

> <source_system>
CHRNA7_encenicline

> <source_run>
hybrid_A_face_seed5519_ex32

> <source_seed>
5519

> <vina_pose_rank>
13

> <vina_affinity_kcal_mol>
-6.0730000000000004

> <vina_rmsd_to_crystal_angstrom>
6.6109

> <minimizedAffinity>
-6.09110

> <CNNscore>
0.1620764881

> <CNNaffinity>
4.1361546516

> <CNN_VS>
0.6703734398

> <CNNaffinity_variance>
0.6170333028

$$$$
CHRNA7_encenicline__hybrid_A_face_seed5519_ex32__pose14


 22 25  0  0  0  0  0  0  0  0999 V2000
  140.2820  140.7190   85.8690 O   0  0  0  0  0  0  0  0  0  0  0  0
  141.1720  140.3440   86.5550 C   0  0  0  0  0  0  0  0  0  0  0  0
  140.8920  139.8350   87.8830 N   0  0  0  0  0  0  0  0  0  0  0  0
  141.6260  139.5190   88.4580 H   0  0  0  0  0  0  0  0  0  0  0  0
  142.6100  140.3990   86.0270 C   0  0  0  0  0  0  0  0  0  0  0  0
  143.7110  139.9700   86.6860 C   0  0  0  0  0  0  0  0  0  0  0  0
  144.9980  140.0860   86.0600 C   0  0  0  0  0  0  0  0  0  0  0  0
  146.2010  139.6990   86.5890 C   0  0  0  0  0  0  0  0  0  0  0  0
  147.3750  139.8770   85.8560 C   0  0  0  0  0  0  0  0  0  0  0  0
  147.3230  140.4540   84.5760 C   0  0  0  0  0  0  0  0  0  0  0  0
  146.0980  140.8490   84.0300 C   0  0  0  0  0  0  0  0  0  0  0  0
  146.0390  141.5780   82.4040 Cl  0  0  0  0  0  0  0  0  0  0  0  0
  144.9400  140.6750   84.7500 C   0  0  0  0  0  0  0  0  0  0  0  0
  143.1710  141.0080   84.4960 S   0  0  0  0  0  0  0  0  0  0  0  0
  139.4940  139.7930   88.3680 C   0  0  0  0  0  0  0  0  0  0  0  0
  138.8200  138.4830   87.9130 C   0  0  0  0  0  0  0  0  0  0  0  0
  138.3610  137.7440   89.0060 N   0  0  0  0  0  0  0  0  0  0  0  0
  137.4700  138.4880   89.7480 C   0  0  0  0  0  0  0  0  0  0  0  0
  138.1030  139.7470   90.2640 C   0  0  0  0  0  0  0  0  0  0  0  0
  139.4690  139.8360   89.8270 C   0  0  0  0  0  0  0  0  0  0  0  0
  140.1910  138.6720   90.3340 C   0  0  0  0  0  0  0  0  0  0  0  0
  139.4560  137.3740   89.8250 C   0  0  0  0  0  0  0  0  0  0  0  0
  1  2  2  0
  2  3  1  0
  3 15  1  0
 15 16  1  0
 16 17  1  0
 17 18  1  0
 18 19  1  0
 19 20  1  0
 20 21  1  0
 21 22  1  0
  2  5  1  0
  5  6  2  0
  6  7  1  0
  7  8  2  0
  8  9  1  0
  9 10  2  0
 10 11  1  0
 11 12  1  0
 11 13  2  0
 13 14  1  0
 20 15  1  0
 14  5  1  0
 22 17  1  0
 13  7  1  0
  3  4  1  0
M  END
> <meeko>
{"is_sidechain": false}

> <source_group>
CHRFAM7A at A face

> <source_system>
CHRNA7_encenicline

> <source_run>
hybrid_A_face_seed5519_ex32

> <source_seed>
5519

> <vina_pose_rank>
14

> <vina_affinity_kcal_mol>
-6.0529999999999999

> <vina_rmsd_to_crystal_angstrom>
5.9236000000000004

> <minimizedAffinity>
-6.11489

> <CNNscore>
0.8478950262

> <CNNaffinity>
6.6620101929

> <CNN_VS>
5.6486854553

> <CNNaffinity_variance>
0.2165283412

$$$$
CHRNA7_encenicline__hybrid_A_face_seed5519_ex32__pose15


 22 25  0  0  0  0  0  0  0  0999 V2000
  143.6250  139.4750   95.6860 O   0  0  0  0  0  0  0  0  0  0  0  0
  143.4640  140.1770   94.7460 C   0  0  0  0  0  0  0  0  0  0  0  0
  142.7840  141.4480   94.9030 N   0  0  0  0  0  0  0  0  0  0  0  0
  142.6490  142.0380   94.1270 H   0  0  0  0  0  0  0  0  0  0  0  0
  143.9810  139.7340   93.3730 C   0  0  0  0  0  0  0  0  0  0  0  0
  144.2340  138.4590   92.9960 C   0  0  0  0  0  0  0  0  0  0  0  0
  144.7150  138.1980   91.6690 C   0  0  0  0  0  0  0  0  0  0  0  0
  145.0140  136.9720   91.1350 C   0  0  0  0  0  0  0  0  0  0  0  0
  145.4760  136.8760   89.8220 C   0  0  0  0  0  0  0  0  0  0  0  0
  145.6350  138.0370   89.0470 C   0  0  0  0  0  0  0  0  0  0  0  0
  145.3300  139.2910   89.5850 C   0  0  0  0  0  0  0  0  0  0  0  0
  145.5300  140.7610   88.5950 Cl  0  0  0  0  0  0  0  0  0  0  0  0
  144.8740  139.3880   90.8780 C   0  0  0  0  0  0  0  0  0  0  0  0
  144.3610  140.7280   91.9950 S   0  0  0  0  0  0  0  0  0  0  0  0
  142.2950  141.8520   96.2410 C   0  0  0  0  0  0  0  0  0  0  0  0
  142.6360  143.3330   96.5000 C   0  0  0  0  0  0  0  0  0  0  0  0
  141.4830  144.0810   96.7520 N   0  0  0  0  0  0  0  0  0  0  0  0
  140.8050  143.5670   97.8360 C   0  0  0  0  0  0  0  0  0  0  0  0
  140.3990  142.1420   97.6020 C   0  0  0  0  0  0  0  0  0  0  0  0
  140.8450  141.6990   96.3100 C   0  0  0  0  0  0  0  0  0  0  0  0
  140.2430  142.5600   95.2950 C   0  0  0  0  0  0  0  0  0  0  0  0
  140.6380  144.0510   95.6150 C   0  0  0  0  0  0  0  0  0  0  0  0
  1  2  2  0
  2  3  1  0
  3 15  1  0
 15 16  1  0
 16 17  1  0
 17 18  1  0
 18 19  1  0
 19 20  1  0
 20 21  1  0
 21 22  1  0
  2  5  1  0
  5  6  2  0
  6  7  1  0
  7  8  2  0
  8  9  1  0
  9 10  2  0
 10 11  1  0
 11 12  1  0
 11 13  2  0
 13 14  1  0
 20 15  1  0
 14  5  1  0
 22 17  1  0
 13  7  1  0
  3  4  1  0
M  END
> <meeko>
{"is_sidechain": false}

> <source_group>
CHRFAM7A at A face

> <source_system>
CHRNA7_encenicline

> <source_run>
hybrid_A_face_seed5519_ex32

> <source_seed>
5519

> <vina_pose_rank>
15

> <vina_affinity_kcal_mol>
-6.024

> <vina_rmsd_to_crystal_angstrom>
6.0442999999999998

> <minimizedAffinity>
-6.04087

> <CNNscore>
0.0785140693

> <CNNaffinity>
3.9051959515

> <CNN_VS>
0.3066128194

> <CNNaffinity_variance>
0.8072397113

$$$$
CHRNA7_encenicline__hybrid_A_face_seed5519_ex32__pose16


 22 25  0  0  0  0  0  0  0  0999 V2000
  139.9770  139.0620   90.3460 O   0  0  0  0  0  0  0  0  0  0  0  0
  140.4950  140.1150   90.5070 C   0  0  0  0  0  0  0  0  0  0  0  0
  141.9240  140.1870   90.7430 N   0  0  0  0  0  0  0  0  0  0  0  0
  142.3610  141.0590   90.8750 H   0  0  0  0  0  0  0  0  0  0  0  0
  139.6470  141.3910   90.4590 C   0  0  0  0  0  0  0  0  0  0  0  0
  139.5270  142.2990   91.4550 C   0  0  0  0  0  0  0  0  0  0  0  0
  138.6940  143.4520   91.2620 C   0  0  0  0  0  0  0  0  0  0  0  0
  138.4700  144.4580   92.1640 C   0  0  0  0  0  0  0  0  0  0  0  0
  137.6280  145.5200   91.8320 C   0  0  0  0  0  0  0  0  0  0  0  0
  137.0100  145.5570   90.5700 C   0  0  0  0  0  0  0  0  0  0  0  0
  137.2350  144.5340   89.6440 C   0  0  0  0  0  0  0  0  0  0  0  0
  136.4500  144.5890   88.0450 Cl  0  0  0  0  0  0  0  0  0  0  0  0
  138.0640  143.4870   89.9700 C   0  0  0  0  0  0  0  0  0  0  0  0
  138.6560  141.9750   89.1520 S   0  0  0  0  0  0  0  0  0  0  0  0
  142.7190  138.9390   90.7840 C   0  0  0  0  0  0  0  0  0  0  0  0
  143.8610  139.0090   89.7510 C   0  0  0  0  0  0  0  0  0  0  0  0
  145.1080  138.8600   90.3630 N   0  0  0  0  0  0  0  0  0  0  0  0
  145.1700  137.6610   91.0390 C   0  0  0  0  0  0  0  0  0  0  0  0
  144.1110  137.5740   92.0990 C   0  0  0  0  0  0  0  0  0  0  0  0
  143.3110  138.7670   92.1070 C   0  0  0  0  0  0  0  0  0  0  0  0
  144.1860  139.9060   92.3710 C   0  0  0  0  0  0  0  0  0  0  0  0
  145.3200  139.9220   91.2760 C   0  0  0  0  0  0  0  0  0  0  0  0
  1  2  2  0
  2  3  1  0
  3 15  1  0
 15 16  1  0
 16 17  1  0
 17 18  1  0
 18 19  1  0
 19 20  1  0
 20 21  1  0
 21 22  1  0
  2  5  1  0
  5  6  2  0
  6  7  1  0
  7  8  2  0
  8  9  1  0
  9 10  2  0
 10 11  1  0
 11 12  1  0
 11 13  2  0
 13 14  1  0
 20 15  1  0
 14  5  1  0
 22 17  1  0
 13  7  1  0
  3  4  1  0
M  END
> <meeko>
{"is_sidechain": false}

> <source_group>
CHRFAM7A at A face

> <source_system>
CHRNA7_encenicline

> <source_run>
hybrid_A_face_seed5519_ex32

> <source_seed>
5519

> <vina_pose_rank>
16

> <vina_affinity_kcal_mol>
-5.9880000000000004

> <vina_rmsd_to_crystal_angstrom>
8.6674000000000007

> <minimizedAffinity>
-5.99791

> <CNNscore>
0.0783846974

> <CNNaffinity>
3.9302196503

> <CNN_VS>
0.3080690801

> <CNNaffinity_variance>
1.8183774948

$$$$
CHRNA7_encenicline__hybrid_A_face_seed5519_ex32__pose17


 22 25  0  0  0  0  0  0  0  0999 V2000
  147.6700  140.5990   91.3860 O   0  0  0  0  0  0  0  0  0  0  0  0
  147.5580  139.7700   90.5490 C   0  0  0  0  0  0  0  0  0  0  0  0
  148.2430  139.9300   89.2800 N   0  0  0  0  0  0  0  0  0  0  0  0
  148.1570  139.2440   88.5800 H   0  0  0  0  0  0  0  0  0  0  0  0
  146.6930  138.5330   90.8170 C   0  0  0  0  0  0  0  0  0  0  0  0
  147.1360  137.3460   91.2910 C   0  0  0  0  0  0  0  0  0  0  0  0
  146.2030  136.2740   91.4940 C   0  0  0  0  0  0  0  0  0  0  0  0
  146.4880  135.0200   91.9660 C   0  0  0  0  0  0  0  0  0  0  0  0
  145.4690  134.0790   92.1090 C   0  0  0  0  0  0  0  0  0  0  0  0
  144.1480  134.4170   91.7680 C   0  0  0  0  0  0  0  0  0  0  0  0
  143.8490  135.6960   91.2870 C   0  0  0  0  0  0  0  0  0  0  0  0
  142.1710  136.1200   90.8590 Cl  0  0  0  0  0  0  0  0  0  0  0  0
  144.8520  136.6250   91.1450 C   0  0  0  0  0  0  0  0  0  0  0  0
  144.9780  138.3500   90.5860 S   0  0  0  0  0  0  0  0  0  0  0  0
  149.0720  141.1350   89.0470 C   0  0  0  0  0  0  0  0  0  0  0  0
  150.4890  140.7200   88.6060 C   0  0  0  0  0  0  0  0  0  0  0  0
  150.8080  141.2570   87.3560 N   0  0  0  0  0  0  0  0  0  0  0  0
  150.7190  142.6320   87.3890 C   0  0  0  0  0  0  0  0  0  0  0  0
  149.3360  143.0820   87.7560 C   0  0  0  0  0  0  0  0  0  0  0  0
  148.4840  141.9490   87.9880 C   0  0  0  0  0  0  0  0  0  0  0  0
  148.4390  141.1500   86.7660 C   0  0  0  0  0  0  0  0  0  0  0  0
  149.9150  140.7540   86.3790 C   0  0  0  0  0  0  0  0  0  0  0  0
  1  2  2  0
  2  3  1  0
  3 15  1  0
 15 16  1  0
 16 17  1  0
 17 18  1  0
 18 19  1  0
 19 20  1  0
 20 21  1  0
 21 22  1  0
  2  5  1  0
  5  6  2  0
  6  7  1  0
  7  8  2  0
  8  9  1  0
  9 10  2  0
 10 11  1  0
 11 12  1  0
 11 13  2  0
 13 14  1  0
 20 15  1  0
 14  5  1  0
 22 17  1  0
 13  7  1  0
  3  4  1  0
M  END
> <meeko>
{"is_sidechain": false}

> <source_group>
CHRFAM7A at A face

> <source_system>
CHRNA7_encenicline

> <source_run>
hybrid_A_face_seed5519_ex32

> <source_seed>
5519

> <vina_pose_rank>
17

> <vina_affinity_kcal_mol>
-5.96

> <vina_rmsd_to_crystal_angstrom>
7.1086

> <minimizedAffinity>
-5.97251

> <CNNscore>
0.3195966780

> <CNNaffinity>
4.8954653740

> <CNN_VS>
1.5645744801

> <CNNaffinity_variance>
0.4519085884

$$$$
CHRNA7_encenicline__hybrid_A_face_seed5519_ex32__pose18


 22 25  0  0  0  0  0  0  0  0999 V2000
  144.9050  137.5240   91.7710 O   0  0  0  0  0  0  0  0  0  0  0  0
  144.4480  138.3780   91.0910 C   0  0  0  0  0  0  0  0  0  0  0  0
  145.3090  139.4200   90.5660 N   0  0  0  0  0  0  0  0  0  0  0  0
  144.9370  140.1330   89.9980 H   0  0  0  0  0  0  0  0  0  0  0  0
  142.9490  138.3710   90.7700 C   0  0  0  0  0  0  0  0  0  0  0  0
  142.1500  137.2800   90.7490 C   0  0  0  0  0  0  0  0  0  0  0  0
  140.7580  137.4300   90.4310 C   0  0  0  0  0  0  0  0  0  0  0  0
  139.8220  136.4320   90.3700 C   0  0  0  0  0  0  0  0  0  0  0  0
  138.4990  136.7350   90.0440 C   0  0  0  0  0  0  0  0  0  0  0  0
  138.1270  138.0640   89.7800 C   0  0  0  0  0  0  0  0  0  0  0  0
  139.0780  139.0870   89.8420 C   0  0  0  0  0  0  0  0  0  0  0  0
  138.6000  140.7720   89.5070 Cl  0  0  0  0  0  0  0  0  0  0  0  0
  140.3820  138.7920   90.1620 C   0  0  0  0  0  0  0  0  0  0  0  0
  141.9300  139.7230   90.3650 S   0  0  0  0  0  0  0  0  0  0  0  0
  146.7540  139.4030   90.8920 C   0  0  0  0  0  0  0  0  0  0  0  0
  147.5610  138.9140   89.6730 C   0  0  0  0  0  0  0  0  0  0  0  0
  148.4960  139.8700   89.2680 N   0  0  0  0  0  0  0  0  0  0  0  0
  149.3570  140.1670   90.3020 C   0  0  0  0  0  0  0  0  0  0  0  0
  148.6180  140.7060   91.4920 C   0  0  0  0  0  0  0  0  0  0  0  0
  147.2070  140.7500   91.2270 C   0  0  0  0  0  0  0  0  0  0  0  0
  146.9820  141.6120   90.0700 C   0  0  0  0  0  0  0  0  0  0  0  0
  147.8260  141.0500   88.8630 C   0  0  0  0  0  0  0  0  0  0  0  0
  1  2  2  0
  2  3  1  0
  3 15  1  0
 15 16  1  0
 16 17  1  0
 17 18  1  0
 18 19  1  0
 19 20  1  0
 20 21  1  0
 21 22  1  0
  2  5  1  0
  5  6  2  0
  6  7  1  0
  7  8  2  0
  8  9  1  0
  9 10  2  0
 10 11  1  0
 11 12  1  0
 11 13  2  0
 13 14  1  0
 20 15  1  0
 14  5  1  0
 22 17  1  0
 13  7  1  0
  3  4  1  0
M  END
> <meeko>
{"is_sidechain": false}

> <source_group>
CHRFAM7A at A face

> <source_system>
CHRNA7_encenicline

> <source_run>
hybrid_A_face_seed5519_ex32

> <source_seed>
5519

> <vina_pose_rank>
18

> <vina_affinity_kcal_mol>
-5.8730000000000002

> <vina_rmsd_to_crystal_angstrom>
7.2091000000000003

> <minimizedAffinity>
-5.89952

> <CNNscore>
0.2280100882

> <CNNaffinity>
4.9812293053

> <CNN_VS>
1.1357705593

> <CNNaffinity_variance>
0.1976596862

$$$$
CHRNA7_encenicline__hybrid_A_face_seed5519_ex32__pose19


 22 25  0  0  0  0  0  0  0  0999 V2000
  144.4740  142.3790   95.1830 O   0  0  0  0  0  0  0  0  0  0  0  0
  143.6220  141.8880   94.5240 C   0  0  0  0  0  0  0  0  0  0  0  0
  142.2320  142.2010   94.7940 N   0  0  0  0  0  0  0  0  0  0  0  0
  141.5180  141.7990   94.2490 H   0  0  0  0  0  0  0  0  0  0  0  0
  143.9990  140.9290   93.3890 C   0  0  0  0  0  0  0  0  0  0  0  0
  144.2820  141.2830   92.1140 C   0  0  0  0  0  0  0  0  0  0  0  0
  144.6220  140.2680   91.1580 C   0  0  0  0  0  0  0  0  0  0  0  0
  144.9340  140.4610   89.8390 C   0  0  0  0  0  0  0  0  0  0  0  0
  145.2440  139.3690   89.0280 C   0  0  0  0  0  0  0  0  0  0  0  0
  145.2360  138.0700   89.5650 C   0  0  0  0  0  0  0  0  0  0  0  0
  144.9190  137.8670   90.9120 C   0  0  0  0  0  0  0  0  0  0  0  0
  144.9120  136.2170   91.5880 Cl  0  0  0  0  0  0  0  0  0  0  0  0
  144.6130  138.9410   91.7120 C   0  0  0  0  0  0  0  0  0  0  0  0
  144.1530  139.1960   93.4520 S   0  0  0  0  0  0  0  0  0  0  0  0
  141.8960  143.1300   95.8960 C   0  0  0  0  0  0  0  0  0  0  0  0
  140.6510  143.9600   95.5220 C   0  0  0  0  0  0  0  0  0  0  0  0
  139.6240  143.7800   96.4520 N   0  0  0  0  0  0  0  0  0  0  0  0
  140.0530  144.1320   97.7140 C   0  0  0  0  0  0  0  0  0  0  0  0
  141.2280  143.3060   98.1440 C   0  0  0  0  0  0  0  0  0  0  0  0
  141.5940  142.3780   97.1100 C   0  0  0  0  0  0  0  0  0  0  0  0
  140.4490  141.5120   96.8420 C   0  0  0  0  0  0  0  0  0  0  0  0
  139.2200  142.4220   96.4580 C   0  0  0  0  0  0  0  0  0  0  0  0
  1  2  2  0
  2  3  1  0
  3 15  1  0
 15 16  1  0
 16 17  1  0
 17 18  1  0
 18 19  1  0
 19 20  1  0
 20 21  1  0
 21 22  1  0
  2  5  1  0
  5  6  2  0
  6  7  1  0
  7  8  2  0
  8  9  1  0
  9 10  2  0
 10 11  1  0
 11 12  1  0
 11 13  2  0
 13 14  1  0
 20 15  1  0
 14  5  1  0
 22 17  1  0
 13  7  1  0
  3  4  1  0
M  END
> <meeko>
{"is_sidechain": false}

> <source_group>
CHRFAM7A at A face

> <source_system>
CHRNA7_encenicline

> <source_run>
hybrid_A_face_seed5519_ex32

> <source_seed>
5519

> <vina_pose_rank>
19

> <vina_affinity_kcal_mol>
-5.7850000000000001

> <vina_rmsd_to_crystal_angstrom>
6.2473999999999998

> <minimizedAffinity>
-5.81185

> <CNNscore>
0.1218298227

> <CNNaffinity>
3.9565341473

> <CNN_VS>
0.4820238650

> <CNNaffinity_variance>
0.7216634750

$$$$
CHRNA7_encenicline__hybrid_A_face_seed5519_ex32__pose20


 22 25  0  0  0  0  0  0  0  0999 V2000
  149.3450  135.6210   92.6200 O   0  0  0  0  0  0  0  0  0  0  0  0
  148.9540  136.4730   91.8960 C   0  0  0  0  0  0  0  0  0  0  0  0
  149.9030  137.3170   91.1970 N   0  0  0  0  0  0  0  0  0  0  0  0
  149.5860  138.0250   90.5910 H   0  0  0  0  0  0  0  0  0  0  0  0
  147.4460  136.6700   91.7030 C   0  0  0  0  0  0  0  0  0  0  0  0
  146.5300  135.6840   91.5640 C   0  0  0  0  0  0  0  0  0  0  0  0
  145.1470  136.0240   91.3920 C   0  0  0  0  0  0  0  0  0  0  0  0
  144.1030  135.1500   91.2410 C   0  0  0  0  0  0  0  0  0  0  0  0
  142.8040  135.6340   91.0810 C   0  0  0  0  0  0  0  0  0  0  0  0
  142.5660  137.0200   91.0750 C   0  0  0  0  0  0  0  0  0  0  0  0
  143.6270  137.9170   91.2300 C   0  0  0  0  0  0  0  0  0  0  0  0
  143.3200  139.6730   91.2230 Cl  0  0  0  0  0  0  0  0  0  0  0  0
  144.9080  137.4430   91.3870 C   0  0  0  0  0  0  0  0  0  0  0  0
  146.5600  138.1660   91.6160 S   0  0  0  0  0  0  0  0  0  0  0  0
  151.3540  137.1050   91.4010 C   0  0  0  0  0  0  0  0  0  0  0  0
  151.7930  135.7880   90.7300 C   0  0  0  0  0  0  0  0  0  0  0  0
  152.7890  136.0130   89.7760 N   0  0  0  0  0  0  0  0  0  0  0  0
  153.8800  136.6210   90.3580 C   0  0  0  0  0  0  0  0  0  0  0  0
  153.5110  137.9380   90.9730 C   0  0  0  0  0  0  0  0  0  0  0  0
  152.1100  138.1980   90.7970 C   0  0  0  0  0  0  0  0  0  0  0  0
  151.8210  138.2200   89.3650 C   0  0  0  0  0  0  0  0  0  0  0  0
  152.2840  136.8450   88.7470 C   0  0  0  0  0  0  0  0  0  0  0  0
  1  2  2  0
  2  3  1  0
  3 15  1  0
 15 16  1  0
 16 17  1  0
 17 18  1  0
 18 19  1  0
 19 20  1  0
 20 21  1  0
 21 22  1  0
  2  5  1  0
  5  6  2  0
  6  7  1  0
  7  8  2  0
  8  9  1  0
  9 10  2  0
 10 11  1  0
 11 12  1  0
 11 13  2  0
 13 14  1  0
 20 15  1  0
 14  5  1  0
 22 17  1  0
 13  7  1  0
  3  4  1  0
M  END
> <meeko>
{"is_sidechain": false}

> <source_group>
CHRFAM7A at A face

> <source_system>
CHRNA7_encenicline

> <source_run>
hybrid_A_face_seed5519_ex32

> <source_seed>
5519

> <vina_pose_rank>
20

> <vina_affinity_kcal_mol>
-5.6689999999999996

> <vina_rmsd_to_crystal_angstrom>
9.2780000000000005

> <minimizedAffinity>
-5.89796

> <CNNscore>
0.2878676951

> <CNNaffinity>
4.8843345642

> <CNN_VS>
1.4060420990

> <CNNaffinity_variance>
0.2175297290

$$$$
