/home/welcome3/Viscacha_pipeline/outputs/docking_campaign/systems/BACE1_verubecestat/prepared/verubecestat_66F_A501_crystal.pdb
 OpenBabel08252613383D

 45 47  0  0  1  0  0  0  0  0999 V2000
   22.7360   10.3830   20.7720 C   0  0  0  0  0  0  0  0  0  0  0  0
   21.5330    9.9810   21.6110 C   0  0  2  0  0  0  0  0  0  0  0  0
   20.6500    9.0380   20.7890 C   0  0  0  0  0  0  0  0  0  0  0  0
   20.6560   11.1270   22.0640 C   0  0  0  0  0  0  0  0  0  0  0  0
   21.5520   12.2130   23.1450 S   0  0  0  0  0  0  0  0  0  0  0  0
   22.4280   11.0730   24.0920 N   0  0  0  0  0  0  0  0  0  0  0  0
   22.3680    9.6820   23.8530 C   0  0  0  0  0  0  0  0  0  0  0  0
   21.9140    9.1570   22.7570 N   0  0  0  0  0  0  0  0  0  0  0  0
   22.8110    8.9190   24.9000 N   0  0  0  0  0  0  0  0  0  0  0  0
   23.0610   11.6570   25.2910 C   0  0  0  0  0  0  0  0  0  0  0  0
   20.5700   12.8320   24.0170 O   0  0  0  0  0  0  0  0  0  0  0  0
   22.5710   12.9310   22.4450 O   0  0  0  0  0  0  0  0  0  0  0  0
   24.0310   10.0450   21.1620 C   0  0  0  0  0  0  0  0  0  0  0  0
   25.1380   10.3980   20.4240 C   0  0  0  0  0  0  0  0  0  0  0  0
   24.9950   11.0970   19.2320 C   0  0  0  0  0  0  0  0  0  0  0  0
   23.7170   11.4440   18.8310 C   0  0  0  0  0  0  0  0  0  0  0  0
   22.6180   11.1110   19.5980 C   0  0  0  0  0  0  0  0  0  0  0  0
   21.3770   11.4890   19.1970 F   0  0  0  0  0  0  0  0  0  0  0  0
   26.3820    9.9940   20.9260 N   0  0  0  0  0  0  0  0  0  0  0  0
   31.0160   10.0770   22.0860 C   0  0  0  0  0  0  0  0  0  0  0  0
   30.7510    9.0820   23.0070 C   0  0  0  0  0  0  0  0  0  0  0  0
   29.4780    8.5610   23.0580 C   0  0  0  0  0  0  0  0  0  0  0  0
   28.4820    8.9760   22.2580 N   0  0  0  0  0  0  0  0  0  0  0  0
   28.7600    9.9480   21.3830 C   0  0  0  0  0  0  0  0  0  0  0  0
   30.0090   10.5300   21.2520 C   0  0  0  0  0  0  0  0  0  0  0  0
   27.6420   10.3910   20.5150 C   0  0  0  0  0  0  0  0  0  0  0  0
   27.8770   11.0830   19.5330 O   0  0  0  0  0  0  0  0  0  0  0  0
   31.6990    8.6040   23.8310 F   0  0  0  0  0  0  0  0  0  0  0  0
   20.3083    9.5445   19.9106 H   0  0  0  0  0  0  0  0  0  0  0  0
   19.8084    8.7351   21.3762 H   0  0  0  0  0  0  0  0  0  0  0  0
   21.2163    8.1755   20.5058 H   0  0  0  0  0  0  0  0  0  0  0  0
   19.8071   10.7353   22.5843 H   0  0  0  0  0  0  0  0  0  0  0  0
   20.3413   11.6803   21.2039 H   0  0  0  0  0  0  0  0  0  0  0  0
   22.8082    7.9370   24.8293 H   0  0  0  0  0  0  0  0  0  0  0  0
   23.1323    9.3523   25.7236 H   0  0  0  0  0  0  0  0  0  0  0  0
   22.9838   12.7235   25.2515 H   0  0  0  0  0  0  0  0  0  0  0  0
   24.0927   11.3751   25.3228 H   0  0  0  0  0  0  0  0  0  0  0  0
   22.5653   11.2958   26.1678 H   0  0  0  0  0  0  0  0  0  0  0  0
   24.1645    9.5112   22.0351 H   0  0  0  0  0  0  0  0  0  0  0  0
   25.8176   11.3500   18.6625 H   0  0  0  0  0  0  0  0  0  0  0  0
   23.5833   11.9587   17.9466 H   0  0  0  0  0  0  0  0  0  0  0  0
   26.3563    9.3447   21.6656 H   0  0  0  0  0  0  0  0  0  0  0  0
   31.9631   10.4816   22.0201 H   0  0  0  0  0  0  0  0  0  0  0  0
   29.2793    7.8158   23.7437 H   0  0  0  0  0  0  0  0  0  0  0  0
   30.1827   11.2740   20.5582 H   0  0  0  0  0  0  0  0  0  0  0  0
  1 13  1  0  0  0  0
  1  2  1  0  0  0  0
  2  3  1  6  0  0  0
  2  4  1  0  0  0  0
  2  8  1  0  0  0  0
  3 29  1  0  0  0  0
  3 30  1  0  0  0  0
  3 31  1  0  0  0  0
  4  5  1  0  0  0  0
  4 32  1  0  0  0  0
  4 33  1  0  0  0  0
  5 11  2  0  0  0  0
  5  6  1  0  0  0  0
  6 10  1  0  0  0  0
  7  6  1  0  0  0  0
  7  9  1  0  0  0  0
  8  7  2  0  0  0  0
  9 34  1  0  0  0  0
  9 35  1  0  0  0  0
 10 36  1  0  0  0  0
 10 37  1  0  0  0  0
 10 38  1  0  0  0  0
 12  5  2  0  0  0  0
 13 39  1  0  0  0  0
 14 19  1  0  0  0  0
 14 13  2  0  0  0  0
 15 14  1  0  0  0  0
 15 40  1  0  0  0  0
 16 15  2  0  0  0  0
 16 17  1  0  0  0  0
 16 41  1  0  0  0  0
 17  1  2  0  0  0  0
 18 17  1  0  0  0  0
 19 42  1  0  0  0  0
 20 21  1  0  0  0  0
 20 43  1  0  0  0  0
 21 22  2  0  0  0  0
 21 28  1  0  0  0  0
 22 44  1  0  0  0  0
 23 22  1  0  0  0  0
 24 23  2  0  0  0  0
 25 24  1  0  0  0  0
 25 20  2  0  0  0  0
 25 45  1  0  0  0  0
 26 19  1  0  0  0  0
 26 24  1  0  0  0  0
 27 26  2  0  0  0  0
M  END
$$$$
