CHRNA7_encenicline__hybrid_A_face_seed1103_ex32__pose01
     RDKit          3D

 38 41  0  0  0  0  0  0  0  0999 V2000
  142.0160  140.4150   90.9290 O   0  0  0  0  0  0  0  0  0  0  0  0
  142.1530  139.2560   90.7280 C   0  0  0  0  0  0  0  0  0  0  0  0
  141.0090  138.4500   90.3490 N   0  0  0  0  0  0  0  0  0  0  0  0
  139.6780  139.0880   90.2220 C   0  0  1  0  0  0  0  0  0  0  0  0
  139.3820  139.3960   88.7410 C   0  0  0  0  0  0  0  0  0  0  0  0
  138.2130  138.7590   88.3160 N   0  0  0  0  0  0  0  0  0  0  0  0
  137.1440  139.1520   89.0920 C   0  0  0  0  0  0  0  0  0  0  0  0
  137.3640  138.8170   90.5380 C   0  0  0  0  0  0  0  0  0  0  0  0
  138.6420  138.1870   90.7170 C   0  0  0  0  0  0  0  0  0  0  0  0
  138.6720  136.9670   89.9140 C   0  0  0  0  0  0  0  0  0  0  0  0
  138.3720  137.3550   88.4160 C   0  0  0  0  0  0  0  0  0  0  0  0
  143.5420  138.6220   90.8660 C   0  0  0  0  0  0  0  0  0  0  0  0
  143.7940  137.3120   91.0920 C   0  0  0  0  0  0  0  0  0  0  0  0
  145.1530  136.8640   91.1960 C   0  0  0  0  0  0  0  0  0  0  0  0
  145.5750  135.5790   91.4190 C   0  0  0  0  0  0  0  0  0  0  0  0
  146.9390  135.2960   91.4980 C   0  0  0  0  0  0  0  0  0  0  0  0
  147.8810  136.3280   91.3490 C   0  0  0  0  0  0  0  0  0  0  0  0
  147.4570  137.6410   91.1200 C   0  0  0  0  0  0  0  0  0  0  0  0
  148.6570  138.9460   90.9290 Cl  0  0  0  0  0  0  0  0  0  0  0  0
  146.1140  137.9230   91.0420 C   0  0  0  0  0  0  0  0  0  0  0  0
  145.0940  139.4030   90.7720 S   0  0  0  0  0  0  0  0  0  0  0  0
  141.1150  137.4870   90.1780 H   0  0  0  0  0  0  0  0  0  0  0  0
  139.6817  140.0179   90.8096 H   0  0  0  0  0  0  0  0  0  0  0  0
  139.2638  140.4826   88.6172 H   0  0  0  0  0  0  0  0  0  0  0  0
  140.2210  139.0253   88.1338 H   0  0  0  0  0  0  0  0  0  0  0  0
  137.0106  140.2394   88.9929 H   0  0  0  0  0  0  0  0  0  0  0  0
  136.2487  138.6153   88.7449 H   0  0  0  0  0  0  0  0  0  0  0  0
  137.3289  139.7412   91.1336 H   0  0  0  0  0  0  0  0  0  0  0  0
  136.5755  138.1246   90.8679 H   0  0  0  0  0  0  0  0  0  0  0  0
  138.8093  137.9554   91.7793 H   0  0  0  0  0  0  0  0  0  0  0  0
  139.6647  136.4986   89.9856 H   0  0  0  0  0  0  0  0  0  0  0  0
  137.9189  136.2533   90.2795 H   0  0  0  0  0  0  0  0  0  0  0  0
  139.2096  137.0343   87.7791 H   0  0  0  0  0  0  0  0  0  0  0  0
  137.4489  136.8564   88.0853 H   0  0  0  0  0  0  0  0  0  0  0  0
  142.9645  136.5970   91.1951 H   0  0  0  0  0  0  0  0  0  0  0  0
  144.8381  134.7707   91.5357 H   0  0  0  0  0  0  0  0  0  0  0  0
  147.2771  134.2647   91.6770 H   0  0  0  0  0  0  0  0  0  0  0  0
  148.9557  136.1024   91.4127 H   0  0  0  0  0  0  0  0  0  0  0  0
  1  2  2  0
  2  3  1  0
  3  4  1  0
  4  5  1  0
  5  6  1  0
  6  7  1  0
  7  8  1  0
  8  9  1  0
  9 10  1  0
 10 11  1  0
  2 12  1  0
 12 13  2  0
 13 14  1  0
 14 15  2  0
 15 16  1  0
 16 17  2  0
 17 18  1  0
 18 19  1  0
 18 20  2  0
 20 21  1  0
  9  4  1  0
 21 12  1  0
 11  6  1  0
 20 14  1  0
  3 22  1  0
  4 23  1  1
  5 24  1  0
  5 25  1  0
  7 26  1  0
  7 27  1  0
  8 28  1  0
  8 29  1  0
  9 30  1  0
 10 31  1  0
 10 32  1  0
 11 33  1  0
 11 34  1  0
 13 35  1  0
 15 36  1  0
 16 37  1  0
 17 38  1  0
M  END
>  <meeko>  (1)
{"is_sidechain": false}

>  <source_group>  (1)
CHRFAM7A at A face

>  <source_system>  (1)
CHRNA7_encenicline

>  <source_run>  (1)
hybrid_A_face_seed1103_ex32

>  <source_seed>  (1)
1103

>  <vina_pose_rank>  (1)
1

>  <vina_affinity_kcal_mol>  (1)
-7.5369999999999999

>  <vina_rmsd_to_crystal_angstrom>  (1)
2.0238

$$$$
CHRNA7_encenicline__hybrid_A_face_seed1103_ex32__pose02
     RDKit          3D

 38 41  0  0  0  0  0  0  0  0999 V2000
  142.3700  138.1270   90.8810 O   0  0  0  0  0  0  0  0  0  0  0  0
  142.4120  139.1840   90.3490 C   0  0  0  0  0  0  0  0  0  0  0  0
  141.1830  139.8290   89.9300 N   0  0  0  0  0  0  0  0  0  0  0  0
  139.8870  139.1540   90.1710 C   0  0  1  0  0  0  0  0  0  0  0  0
  138.8110  140.1960   90.5330 C   0  0  0  0  0  0  0  0  0  0  0  0
  137.7400  140.1500   89.6370 N   0  0  0  0  0  0  0  0  0  0  0  0
  137.1780  138.8910   89.6250 C   0  0  0  0  0  0  0  0  0  0  0  0
  138.1780  137.8500   89.2180 C   0  0  0  0  0  0  0  0  0  0  0  0
  139.4560  138.4530   88.9650 C   0  0  0  0  0  0  0  0  0  0  0  0
  139.2980  139.4350   87.8950 C   0  0  0  0  0  0  0  0  0  0  0  0
  138.1940  140.4710   88.3340 C   0  0  0  0  0  0  0  0  0  0  0  0
  143.7670  139.8600   90.1120 C   0  0  0  0  0  0  0  0  0  0  0  0
  144.3220  140.1190   88.9050 C   0  0  0  0  0  0  0  0  0  0  0  0
  145.6030  140.7630   88.8410 C   0  0  0  0  0  0  0  0  0  0  0  0
  146.2950  141.0950   87.7060 C   0  0  0  0  0  0  0  0  0  0  0  0
  147.5380  141.7210   87.8040 C   0  0  0  0  0  0  0  0  0  0  0  0
  148.0810  142.0120   89.0680 C   0  0  0  0  0  0  0  0  0  0  0  0
  147.3790  141.6770   90.2300 C   0  0  0  0  0  0  0  0  0  0  0  0
  148.0710  142.0510   91.8300 Cl  0  0  0  0  0  0  0  0  0  0  0  0
  146.1540  141.0600   90.1360 C   0  0  0  0  0  0  0  0  0  0  0  0
  144.8980  140.4470   91.2980 S   0  0  0  0  0  0  0  0  0  0  0  0
  141.2090  140.7080   89.4890 H   0  0  0  0  0  0  0  0  0  0  0  0
  140.0167  138.4395   90.9973 H   0  0  0  0  0  0  0  0  0  0  0  0
  138.4390  139.9897   91.5474 H   0  0  0  0  0  0  0  0  0  0  0  0
  139.2647  141.1968   90.4817 H   0  0  0  0  0  0  0  0  0  0  0  0
  136.8060  138.6554   90.6330 H   0  0  0  0  0  0  0  0  0  0  0  0
  136.3555  138.8857   88.8946 H   0  0  0  0  0  0  0  0  0  0  0  0
  138.2801  137.1105   90.0259 H   0  0  0  0  0  0  0  0  0  0  0  0
  137.8272  137.3599   88.2978 H   0  0  0  0  0  0  0  0  0  0  0  0
  140.1923  137.6862   88.6824 H   0  0  0  0  0  0  0  0  0  0  0  0
  140.2514  139.9568   87.7251 H   0  0  0  0  0  0  0  0  0  0  0  0
  138.9991  138.9346   86.9621 H   0  0  0  0  0  0  0  0  0  0  0  0
  138.6209  141.4848   88.3333 H   0  0  0  0  0  0  0  0  0  0  0  0
  137.3499  140.4294   87.6299 H   0  0  0  0  0  0  0  0  0  0  0  0
  143.7956  139.8382   87.9808 H   0  0  0  0  0  0  0  0  0  0  0  0
  145.8703  140.8679   86.7170 H   0  0  0  0  0  0  0  0  0  0  0  0
  148.0933  141.9869   86.8924 H   0  0  0  0  0  0  0  0  0  0  0  0
  149.0615  142.5049   89.1430 H   0  0  0  0  0  0  0  0  0  0  0  0
  1  2  2  0
  2  3  1  0
  3  4  1  0
  4  5  1  0
  5  6  1  0
  6  7  1  0
  7  8  1  0
  8  9  1  0
  9 10  1  0
 10 11  1  0
  2 12  1  0
 12 13  2  0
 13 14  1  0
 14 15  2  0
 15 16  1  0
 16 17  2  0
 17 18  1  0
 18 19  1  0
 18 20  2  0
 20 21  1  0
  9  4  1  0
 21 12  1  0
 11  6  1  0
 20 14  1  0
  3 22  1  0
  4 23  1  1
  5 24  1  0
  5 25  1  0
  7 26  1  0
  7 27  1  0
  8 28  1  0
  8 29  1  0
  9 30  1  0
 10 31  1  0
 10 32  1  0
 11 33  1  0
 11 34  1  0
 13 35  1  0
 15 36  1  0
 16 37  1  0
 17 38  1  0
M  END
>  <meeko>  (2)
{"is_sidechain": false}

>  <source_group>  (2)
CHRFAM7A at A face

>  <source_system>  (2)
CHRNA7_encenicline

>  <source_run>  (2)
hybrid_A_face_seed1103_ex32

>  <source_seed>  (2)
1103

>  <vina_pose_rank>  (2)
2

>  <vina_affinity_kcal_mol>  (2)
-7.4950000000000001

>  <vina_rmsd_to_crystal_angstrom>  (2)
4.4604999999999997

$$$$
CHRNA7_encenicline__hybrid_A_face_seed1103_ex32__pose03
     RDKit          3D

 38 41  0  0  0  0  0  0  0  0999 V2000
  142.8470  138.7730   91.0880 O   0  0  0  0  0  0  0  0  0  0  0  0
  142.7080  139.4710   90.1410 C   0  0  0  0  0  0  0  0  0  0  0  0
  141.3730  139.7980   89.6780 N   0  0  0  0  0  0  0  0  0  0  0  0
  140.1990  139.2500   90.3940 C   0  0  1  0  0  0  0  0  0  0  0  0
  139.1360  140.3510   90.5800 C   0  0  0  0  0  0  0  0  0  0  0  0
  137.9220  139.9880   89.9910 N   0  0  0  0  0  0  0  0  0  0  0  0
  137.4620  138.8070   90.5310 C   0  0  0  0  0  0  0  0  0  0  0  0
  138.4410  137.6900   90.3190 C   0  0  0  0  0  0  0  0  0  0  0  0
  139.6010  138.1670   89.6200 C   0  0  0  0  0  0  0  0  0  0  0  0
  139.1740  138.7040   88.3310 C   0  0  0  0  0  0  0  0  0  0  0  0
  138.1000  139.8270   88.5950 C   0  0  0  0  0  0  0  0  0  0  0  0
  143.9410  140.0240   89.4190 C   0  0  0  0  0  0  0  0  0  0  0  0
  144.9720  140.6800   90.0020 C   0  0  0  0  0  0  0  0  0  0  0  0
  146.0640  141.1390   89.1920 C   0  0  0  0  0  0  0  0  0  0  0  0
  147.1760  141.8120   89.6250 C   0  0  0  0  0  0  0  0  0  0  0  0
  148.1580  142.1980   88.7130 C   0  0  0  0  0  0  0  0  0  0  0  0
  148.0080  141.8960   87.3490 C   0  0  0  0  0  0  0  0  0  0  0  0
  146.8760  141.2080   86.9000 C   0  0  0  0  0  0  0  0  0  0  0  0
  146.6920  140.8260   85.1690 Cl  0  0  0  0  0  0  0  0  0  0  0  0
  145.9060  140.8280   87.7970 C   0  0  0  0  0  0  0  0  0  0  0  0
  144.3160  139.9510   87.7210 S   0  0  0  0  0  0  0  0  0  0  0  0
  141.2490  140.3800   88.8940 H   0  0  0  0  0  0  0  0  0  0  0  0
  140.5343  138.8753   91.3723 H   0  0  0  0  0  0  0  0  0  0  0  0
  138.9769  140.5177   91.6556 H   0  0  0  0  0  0  0  0  0  0  0  0
  139.4976  141.2690   90.0937 H   0  0  0  0  0  0  0  0  0  0  0  0
  137.3045  138.9447   91.6109 H   0  0  0  0  0  0  0  0  0  0  0  0
  136.5196  138.5411   90.0298 H   0  0  0  0  0  0  0  0  0  0  0  0
  138.7468  137.2859   91.2953 H   0  0  0  0  0  0  0  0  0  0  0  0
  137.9606  136.9037   89.7182 H   0  0  0  0  0  0  0  0  0  0  0  0
  140.3253  137.3512   89.4790 H   0  0  0  0  0  0  0  0  0  0  0  0
  140.0379  139.1324   87.8017 H   0  0  0  0  0  0  0  0  0  0  0  0
  138.7422  137.9044   87.7112 H   0  0  0  0  0  0  0  0  0  0  0  0
  138.4451  140.7752   88.1571 H   0  0  0  0  0  0  0  0  0  0  0  0
  137.1444  139.5377   88.1334 H   0  0  0  0  0  0  0  0  0  0  0  0
  144.9726  140.8595   91.0872 H   0  0  0  0  0  0  0  0  0  0  0  0
  147.2944  142.0481   90.6928 H   0  0  0  0  0  0  0  0  0  0  0  0
  149.0501  142.7390   89.0616 H   0  0  0  0  0  0  0  0  0  0  0  0
  148.7837  142.2018   86.6316 H   0  0  0  0  0  0  0  0  0  0  0  0
  1  2  2  0
  2  3  1  0
  3  4  1  0
  4  5  1  0
  5  6  1  0
  6  7  1  0
  7  8  1  0
  8  9  1  0
  9 10  1  0
 10 11  1  0
  2 12  1  0
 12 13  2  0
 13 14  1  0
 14 15  2  0
 15 16  1  0
 16 17  2  0
 17 18  1  0
 18 19  1  0
 18 20  2  0
 20 21  1  0
  9  4  1  0
 21 12  1  0
 11  6  1  0
 20 14  1  0
  3 22  1  0
  4 23  1  1
  5 24  1  0
  5 25  1  0
  7 26  1  0
  7 27  1  0
  8 28  1  0
  8 29  1  0
  9 30  1  0
 10 31  1  0
 10 32  1  0
 11 33  1  0
 11 34  1  0
 13 35  1  0
 15 36  1  0
 16 37  1  0
 17 38  1  0
M  END
>  <meeko>  (3)
{"is_sidechain": false}

>  <source_group>  (3)
CHRFAM7A at A face

>  <source_system>  (3)
CHRNA7_encenicline

>  <source_run>  (3)
hybrid_A_face_seed1103_ex32

>  <source_seed>  (3)
1103

>  <vina_pose_rank>  (3)
3

>  <vina_affinity_kcal_mol>  (3)
-7.407

>  <vina_rmsd_to_crystal_angstrom>  (3)
4.9146000000000001

$$$$
CHRNA7_encenicline__hybrid_A_face_seed1103_ex32__pose04
     RDKit          3D

 38 41  0  0  0  0  0  0  0  0999 V2000
  142.1770  140.1550   90.7540 O   0  0  0  0  0  0  0  0  0  0  0  0
  142.2060  138.9800   90.6060 C   0  0  0  0  0  0  0  0  0  0  0  0
  140.9770  138.2560   90.3460 N   0  0  0  0  0  0  0  0  0  0  0  0
  139.6970  138.9970   90.2720 C   0  0  1  0  0  0  0  0  0  0  0  0
  139.4230  139.4290   88.8180 C   0  0  0  0  0  0  0  0  0  0  0  0
  138.2100  138.9110   88.3560 N   0  0  0  0  0  0  0  0  0  0  0  0
  137.1740  139.3250   89.1630 C   0  0  0  0  0  0  0  0  0  0  0  0
  137.3690  138.8730   90.5800 C   0  0  0  0  0  0  0  0  0  0  0  0
  138.5980  138.1410   90.7080 C   0  0  0  0  0  0  0  0  0  0  0  0
  138.5380  136.9820   89.8210 C   0  0  0  0  0  0  0  0  0  0  0  0
  138.2660  137.4950   88.3550 C   0  0  0  0  0  0  0  0  0  0  0  0
  143.5450  138.2390   90.6880 C   0  0  0  0  0  0  0  0  0  0  0  0
  144.7450  138.7280   90.2990 C   0  0  0  0  0  0  0  0  0  0  0  0
  145.9180  137.9130   90.4390 C   0  0  0  0  0  0  0  0  0  0  0  0
  147.1990  138.2580   90.0960 C   0  0  0  0  0  0  0  0  0  0  0  0
  148.2430  137.3530   90.2920 C   0  0  0  0  0  0  0  0  0  0  0  0
  147.9800  136.0860   90.8400 C   0  0  0  0  0  0  0  0  0  0  0  0
  146.6750  135.7280   91.1930 C   0  0  0  0  0  0  0  0  0  0  0  0
  146.3490  134.1190   91.8900 Cl  0  0  0  0  0  0  0  0  0  0  0  0
  145.6460  136.6170   91.0010 C   0  0  0  0  0  0  0  0  0  0  0  0
  143.8500  136.6320   91.2830 S   0  0  0  0  0  0  0  0  0  0  0  0
  140.9930  137.2800   90.2190 H   0  0  0  0  0  0  0  0  0  0  0  0
  139.7696  139.8804   90.9234 H   0  0  0  0  0  0  0  0  0  0  0  0
  139.3849  140.5274   88.7713 H   0  0  0  0  0  0  0  0  0  0  0  0
  140.2319  139.0411   88.1815 H   0  0  0  0  0  0  0  0  0  0  0  0
  137.1210  140.4235   89.1419 H   0  0  0  0  0  0  0  0  0  0  0  0
  136.2415  138.8816   88.7837 H   0  0  0  0  0  0  0  0  0  0  0  0
  137.4008  139.7526   91.2398 H   0  0  0  0  0  0  0  0  0  0  0  0
  136.5324  138.2175   90.8635 H   0  0  0  0  0  0  0  0  0  0  0  0
  138.7488  137.8239   91.7505 H   0  0  0  0  0  0  0  0  0  0  0  0
  139.4938  136.4385   89.8537 H   0  0  0  0  0  0  0  0  0  0  0  0
  137.7347  136.3015   90.1399 H   0  0  0  0  0  0  0  0  0  0  0  0
  139.0775  137.1600   87.6922 H   0  0  0  0  0  0  0  0  0  0  0  0
  137.3092  137.0891   87.9947 H   0  0  0  0  0  0  0  0  0  0  0  0
  144.8210  139.7418   89.8789 H   0  0  0  0  0  0  0  0  0  0  0  0
  147.4046  139.2493   89.6657 H   0  0  0  0  0  0  0  0  0  0  0  0
  149.2713  137.6312   90.0177 H   0  0  0  0  0  0  0  0  0  0  0  0
  148.8038  135.3730   90.9919 H   0  0  0  0  0  0  0  0  0  0  0  0
  1  2  2  0
  2  3  1  0
  3  4  1  0
  4  5  1  0
  5  6  1  0
  6  7  1  0
  7  8  1  0
  8  9  1  0
  9 10  1  0
 10 11  1  0
  2 12  1  0
 12 13  2  0
 13 14  1  0
 14 15  2  0
 15 16  1  0
 16 17  2  0
 17 18  1  0
 18 19  1  0
 18 20  2  0
 20 21  1  0
  9  4  1  0
 21 12  1  0
 11  6  1  0
 20 14  1  0
  3 22  1  0
  4 23  1  1
  5 24  1  0
  5 25  1  0
  7 26  1  0
  7 27  1  0
  8 28  1  0
  8 29  1  0
  9 30  1  0
 10 31  1  0
 10 32  1  0
 11 33  1  0
 11 34  1  0
 13 35  1  0
 15 36  1  0
 16 37  1  0
 17 38  1  0
M  END
>  <meeko>  (4)
{"is_sidechain": false}

>  <source_group>  (4)
CHRFAM7A at A face

>  <source_system>  (4)
CHRNA7_encenicline

>  <source_run>  (4)
hybrid_A_face_seed1103_ex32

>  <source_seed>  (4)
1103

>  <vina_pose_rank>  (4)
4

>  <vina_affinity_kcal_mol>  (4)
-7.3499999999999996

>  <vina_rmsd_to_crystal_angstrom>  (4)
2.5427

$$$$
CHRNA7_encenicline__hybrid_A_face_seed1103_ex32__pose05
     RDKit          3D

 38 41  0  0  0  0  0  0  0  0999 V2000
  144.6730  139.4950   92.0010 O   0  0  0  0  0  0  0  0  0  0  0  0
  144.2720  138.5040   91.4920 C   0  0  0  0  0  0  0  0  0  0  0  0
  145.1450  137.3530   91.3670 N   0  0  0  0  0  0  0  0  0  0  0  0
  146.5330  137.4340   91.8770 C   0  0  1  0  0  0  0  0  0  0  0  0
  146.9730  136.0600   92.4210 C   0  0  0  0  0  0  0  0  0  0  0  0
  148.1100  135.5930   91.7580 N   0  0  0  0  0  0  0  0  0  0  0  0
  149.1450  136.4940   91.8870 C   0  0  0  0  0  0  0  0  0  0  0  0
  148.7810  137.8320   91.3140 C   0  0  0  0  0  0  0  0  0  0  0  0
  147.4410  137.8080   90.7970 C   0  0  0  0  0  0  0  0  0  0  0  0
  147.3660  136.7850   89.7580 C   0  0  0  0  0  0  0  0  0  0  0  0
  147.8180  135.4110   90.3830 C   0  0  0  0  0  0  0  0  0  0  0  0
  142.8300  138.4490   90.9730 C   0  0  0  0  0  0  0  0  0  0  0  0
  142.0450  137.3480   90.9360 C   0  0  0  0  0  0  0  0  0  0  0  0
  140.7090  137.4520   90.4220 C   0  0  0  0  0  0  0  0  0  0  0  0
  139.7920  136.4390   90.3180 C   0  0  0  0  0  0  0  0  0  0  0  0
  138.5250  136.6950   89.7930 C   0  0  0  0  0  0  0  0  0  0  0  0
  138.1880  137.9930   89.3700 C   0  0  0  0  0  0  0  0  0  0  0  0
  139.1190  139.0310   89.4740 C   0  0  0  0  0  0  0  0  0  0  0  0
  138.6860  140.6750   88.9390 Cl  0  0  0  0  0  0  0  0  0  0  0  0
  140.3680  138.7810   89.9910 C   0  0  0  0  0  0  0  0  0  0  0  0
  141.8710  139.7480   90.3230 S   0  0  0  0  0  0  0  0  0  0  0  0
  144.8180  136.5250   90.9480 H   0  0  0  0  0  0  0  0  0  0  0  0
  146.5656  138.1883   92.6770 H   0  0  0  0  0  0  0  0  0  0  0  0
  147.1970  136.1542   93.4938 H   0  0  0  0  0  0  0  0  0  0  0  0
  146.1554  135.3429   92.2560 H   0  0  0  0  0  0  0  0  0  0  0  0
  149.3836  136.6146   92.9540 H   0  0  0  0  0  0  0  0  0  0  0  0
  150.0130  136.1054   91.3343 H   0  0  0  0  0  0  0  0  0  0  0  0
  148.8514  138.5953   92.1029 H   0  0  0  0  0  0  0  0  0  0  0  0
  149.4752  138.0698   90.4946 H   0  0  0  0  0  0  0  0  0  0  0  0
  147.1691  138.7932   90.3902 H   0  0  0  0  0  0  0  0  0  0  0  0
  146.3327  136.7041   89.3896 H   0  0  0  0  0  0  0  0  0  0  0  0
  148.0209  137.0518   88.9155 H   0  0  0  0  0  0  0  0  0  0  0  0
  147.0085  134.6742   90.2741 H   0  0  0  0  0  0  0  0  0  0  0  0
  148.7158  135.0476   89.8615 H   0  0  0  0  0  0  0  0  0  0  0  0
  142.4272  136.3816   91.2966 H   0  0  0  0  0  0  0  0  0  0  0  0
  140.0550  135.4234   90.6487 H   0  0  0  0  0  0  0  0  0  0  0  0
  137.7895  135.8813   89.7100 H   0  0  0  0  0  0  0  0  0  0  0  0
  137.1886  138.1924   88.9559 H   0  0  0  0  0  0  0  0  0  0  0  0
  1  2  2  0
  2  3  1  0
  3  4  1  0
  4  5  1  0
  5  6  1  0
  6  7  1  0
  7  8  1  0
  8  9  1  0
  9 10  1  0
 10 11  1  0
  2 12  1  0
 12 13  2  0
 13 14  1  0
 14 15  2  0
 15 16  1  0
 16 17  2  0
 17 18  1  0
 18 19  1  0
 18 20  2  0
 20 21  1  0
  9  4  1  0
 21 12  1  0
 11  6  1  0
 20 14  1  0
  3 22  1  0
  4 23  1  1
  5 24  1  0
  5 25  1  0
  7 26  1  0
  7 27  1  0
  8 28  1  0
  8 29  1  0
  9 30  1  0
 10 31  1  0
 10 32  1  0
 11 33  1  0
 11 34  1  0
 13 35  1  0
 15 36  1  0
 16 37  1  0
 17 38  1  0
M  END
>  <meeko>  (5)
{"is_sidechain": false}

>  <source_group>  (5)
CHRFAM7A at A face

>  <source_system>  (5)
CHRNA7_encenicline

>  <source_run>  (5)
hybrid_A_face_seed1103_ex32

>  <source_seed>  (5)
1103

>  <vina_pose_rank>  (5)
5

>  <vina_affinity_kcal_mol>  (5)
-6.6159999999999997

>  <vina_rmsd_to_crystal_angstrom>  (5)
7.6802000000000001

$$$$
CHRNA7_encenicline__hybrid_A_face_seed1103_ex32__pose06
     RDKit          3D

 38 41  0  0  0  0  0  0  0  0999 V2000
  144.7720  139.9220   90.8230 O   0  0  0  0  0  0  0  0  0  0  0  0
  144.3760  138.8070   90.8730 C   0  0  0  0  0  0  0  0  0  0  0  0
  145.3080  137.7220   91.1160 N   0  0  0  0  0  0  0  0  0  0  0  0
  146.7460  138.0240   91.2950 C   0  0  1  0  0  0  0  0  0  0  0  0
  147.3770  137.0130   92.2730 C   0  0  0  0  0  0  0  0  0  0  0  0
  148.4340  136.3210   91.6740 N   0  0  0  0  0  0  0  0  0  0  0  0
  149.3970  137.2040   91.2370 C   0  0  0  0  0  0  0  0  0  0  0  0
  148.8400  138.1710   90.2350 C   0  0  0  0  0  0  0  0  0  0  0  0
  147.4430  137.9180   90.0170 C   0  0  0  0  0  0  0  0  0  0  0  0
  147.2940  136.5510   89.5240 C   0  0  0  0  0  0  0  0  0  0  0  0
  147.9500  135.5740   90.5720 C   0  0  0  0  0  0  0  0  0  0  0  0
  142.8820  138.5230   90.6830 C   0  0  0  0  0  0  0  0  0  0  0  0
  141.9410  139.4330   90.3400 C   0  0  0  0  0  0  0  0  0  0  0  0
  140.5750  139.0160   90.1970 C   0  0  0  0  0  0  0  0  0  0  0  0
  139.5110  139.8080   89.8550 C   0  0  0  0  0  0  0  0  0  0  0  0
  138.2330  139.2560   89.7560 C   0  0  0  0  0  0  0  0  0  0  0  0
  138.0380  137.8870   90.0080 C   0  0  0  0  0  0  0  0  0  0  0  0
  139.1200  137.0730   90.3560 C   0  0  0  0  0  0  0  0  0  0  0  0
  138.8670  135.3370   90.6720 Cl  0  0  0  0  0  0  0  0  0  0  0  0
  140.3800  137.6150   90.4540 C   0  0  0  0  0  0  0  0  0  0  0  0
  142.0450  137.0070   90.8570 S   0  0  0  0  0  0  0  0  0  0  0  0
  144.9870  136.7930   91.1610 H   0  0  0  0  0  0  0  0  0  0  0  0
  146.8387  139.0457   91.6918 H   0  0  0  0  0  0  0  0  0  0  0  0
  147.7553  137.5536   93.1531 H   0  0  0  0  0  0  0  0  0  0  0  0
  146.6063  136.2850   92.5662 H   0  0  0  0  0  0  0  0  0  0  0  0
  149.7847  137.7661   92.0994 H   0  0  0  0  0  0  0  0  0  0  0  0
  150.1997  136.6284   90.7528 H   0  0  0  0  0  0  0  0  0  0  0  0
  148.9680  139.1967   90.6113 H   0  0  0  0  0  0  0  0  0  0  0  0
  149.3775  138.0474   89.2833 H   0  0  0  0  0  0  0  0  0  0  0  0
  147.0312  138.6377   89.2942 H   0  0  0  0  0  0  0  0  0  0  0  0
  146.2267  136.3111   89.4089 H   0  0  0  0  0  0  0  0  0  0  0  0
  147.7863  136.4445   88.5461 H   0  0  0  0  0  0  0  0  0  0  0  0
  147.1977  134.8513   90.9208 H   0  0  0  0  0  0  0  0  0  0  0  0
  148.7841  135.0349   90.0992 H   0  0  0  0  0  0  0  0  0  0  0  0
  142.2206  140.4835   90.1722 H   0  0  0  0  0  0  0  0  0  0  0  0
  139.6639  140.8794   89.6583 H   0  0  0  0  0  0  0  0  0  0  0  0
  137.3787  139.8920   89.4809 H   0  0  0  0  0  0  0  0  0  0  0  0
  137.0296  137.4542   89.9311 H   0  0  0  0  0  0  0  0  0  0  0  0
  1  2  2  0
  2  3  1  0
  3  4  1  0
  4  5  1  0
  5  6  1  0
  6  7  1  0
  7  8  1  0
  8  9  1  0
  9 10  1  0
 10 11  1  0
  2 12  1  0
 12 13  2  0
 13 14  1  0
 14 15  2  0
 15 16  1  0
 16 17  2  0
 17 18  1  0
 18 19  1  0
 18 20  2  0
 20 21  1  0
  9  4  1  0
 21 12  1  0
 11  6  1  0
 20 14  1  0
  3 22  1  0
  4 23  1  1
  5 24  1  0
  5 25  1  0
  7 26  1  0
  7 27  1  0
  8 28  1  0
  8 29  1  0
  9 30  1  0
 10 31  1  0
 10 32  1  0
 11 33  1  0
 11 34  1  0
 13 35  1  0
 15 36  1  0
 16 37  1  0
 17 38  1  0
M  END
>  <meeko>  (6)
{"is_sidechain": false}

>  <source_group>  (6)
CHRFAM7A at A face

>  <source_system>  (6)
CHRNA7_encenicline

>  <source_run>  (6)
hybrid_A_face_seed1103_ex32

>  <source_seed>  (6)
1103

>  <vina_pose_rank>  (6)
6

>  <vina_affinity_kcal_mol>  (6)
-6.3840000000000003

>  <vina_rmsd_to_crystal_angstrom>  (6)
7.6593

$$$$
CHRNA7_encenicline__hybrid_A_face_seed1103_ex32__pose07
     RDKit          3D

 38 41  0  0  0  0  0  0  0  0999 V2000
  144.8000  138.7080   91.5840 O   0  0  0  0  0  0  0  0  0  0  0  0
  144.1760  139.1000   90.6570 C   0  0  0  0  0  0  0  0  0  0  0  0
  144.8230  139.9140   89.6470 N   0  0  0  0  0  0  0  0  0  0  0  0
  146.2590  140.2480   89.7890 C   0  0  1  0  0  0  0  0  0  0  0  0
  147.1230  139.0810   89.2720 C   0  0  0  0  0  0  0  0  0  0  0  0
  147.9680  139.4960   88.2380 N   0  0  0  0  0  0  0  0  0  0  0  0
  148.7840  140.5200   88.6680 C   0  0  0  0  0  0  0  0  0  0  0  0
  147.9830  141.7030   89.1260 C   0  0  0  0  0  0  0  0  0  0  0  0
  146.5770  141.4350   89.0020 C   0  0  0  0  0  0  0  0  0  0  0  0
  146.2840  141.1490   87.6000 C   0  0  0  0  0  0  0  0  0  0  0  0
  147.1920  139.9450   87.1410 C   0  0  0  0  0  0  0  0  0  0  0  0
  142.6920  138.7400   90.5350 C   0  0  0  0  0  0  0  0  0  0  0  0
  141.6910  139.6000   90.2370 C   0  0  0  0  0  0  0  0  0  0  0  0
  140.3430  139.1130   90.1550 C   0  0  0  0  0  0  0  0  0  0  0  0
  139.2250  139.8480   89.8630 C   0  0  0  0  0  0  0  0  0  0  0  0
  137.9740  139.2310   89.8210 C   0  0  0  0  0  0  0  0  0  0  0  0
  137.8610  137.8540   90.0770 C   0  0  0  0  0  0  0  0  0  0  0  0
  138.9990  137.0970   90.3750 C   0  0  0  0  0  0  0  0  0  0  0  0
  138.8500  135.3500   90.6970 Cl  0  0  0  0  0  0  0  0  0  0  0  0
  140.2320  137.7030   90.4170 C   0  0  0  0  0  0  0  0  0  0  0  0
  141.9430  137.1820   90.7430 S   0  0  0  0  0  0  0  0  0  0  0  0
  144.3130  140.2420   88.8720 H   0  0  0  0  0  0  0  0  0  0  0  0
  146.4684  140.4335   90.8528 H   0  0  0  0  0  0  0  0  0  0  0  0
  147.7338  138.6925   90.1003 H   0  0  0  0  0  0  0  0  0  0  0  0
  146.4546  138.2990   88.8826 H   0  0  0  0  0  0  0  0  0  0  0  0
  149.4000  140.1593   89.5049 H   0  0  0  0  0  0  0  0  0  0  0  0
  149.4165  140.8357   87.8252 H   0  0  0  0  0  0  0  0  0  0  0  0
  148.2199  141.9152   90.1790 H   0  0  0  0  0  0  0  0  0  0  0  0
  148.2373  142.5702   88.4988 H   0  0  0  0  0  0  0  0  0  0  0  0
  145.9901  142.2969   89.3522 H   0  0  0  0  0  0  0  0  0  0  0  0
  145.2235  140.8786   87.4892 H   0  0  0  0  0  0  0  0  0  0  0  0
  146.4881  142.0354   86.9814 H   0  0  0  0  0  0  0  0  0  0  0  0
  146.5565  139.1229   86.7800 H   0  0  0  0  0  0  0  0  0  0  0  0
  147.8582  140.2754   86.3304 H   0  0  0  0  0  0  0  0  0  0  0  0
  141.9082  140.6636   90.0590 H   0  0  0  0  0  0  0  0  0  0  0  0
  139.3132  140.9258   89.6614 H   0  0  0  0  0  0  0  0  0  0  0  0
  137.0765  139.8226   89.5875 H   0  0  0  0  0  0  0  0  0  0  0  0
  136.8740  137.3695   90.0430 H   0  0  0  0  0  0  0  0  0  0  0  0
  1  2  2  0
  2  3  1  0
  3  4  1  0
  4  5  1  0
  5  6  1  0
  6  7  1  0
  7  8  1  0
  8  9  1  0
  9 10  1  0
 10 11  1  0
  2 12  1  0
 12 13  2  0
 13 14  1  0
 14 15  2  0
 15 16  1  0
 16 17  2  0
 17 18  1  0
 18 19  1  0
 18 20  2  0
 20 21  1  0
  9  4  1  0
 21 12  1  0
 11  6  1  0
 20 14  1  0
  3 22  1  0
  4 23  1  1
  5 24  1  0
  5 25  1  0
  7 26  1  0
  7 27  1  0
  8 28  1  0
  8 29  1  0
  9 30  1  0
 10 31  1  0
 10 32  1  0
 11 33  1  0
 11 34  1  0
 13 35  1  0
 15 36  1  0
 16 37  1  0
 17 38  1  0
M  END
>  <meeko>  (7)
{"is_sidechain": false}

>  <source_group>  (7)
CHRFAM7A at A face

>  <source_system>  (7)
CHRNA7_encenicline

>  <source_run>  (7)
hybrid_A_face_seed1103_ex32

>  <source_seed>  (7)
1103

>  <vina_pose_rank>  (7)
7

>  <vina_affinity_kcal_mol>  (7)
-6.3200000000000003

>  <vina_rmsd_to_crystal_angstrom>  (7)
7.0132000000000003

$$$$
CHRNA7_encenicline__hybrid_A_face_seed1103_ex32__pose08
     RDKit          3D

 38 41  0  0  0  0  0  0  0  0999 V2000
  146.3120  140.4280   92.6180 O   0  0  0  0  0  0  0  0  0  0  0  0
  145.2250  139.9650   92.5420 C   0  0  0  0  0  0  0  0  0  0  0  0
  145.0350  138.6730   91.9120 N   0  0  0  0  0  0  0  0  0  0  0  0
  146.2070  137.9500   91.3660 C   0  0  1  0  0  0  0  0  0  0  0  0
  146.7430  136.9530   92.4120 C   0  0  0  0  0  0  0  0  0  0  0  0
  146.7330  135.6460   91.9180 N   0  0  0  0  0  0  0  0  0  0  0  0
  147.4900  135.5620   90.7700 C   0  0  0  0  0  0  0  0  0  0  0  0
  146.9650  136.4740   89.7000 C   0  0  0  0  0  0  0  0  0  0  0  0
  145.8200  137.1980   90.1760 C   0  0  0  0  0  0  0  0  0  0  0  0
  144.7900  136.2340   90.5560 C   0  0  0  0  0  0  0  0  0  0  0  0
  145.4020  135.2560   91.6300 C   0  0  0  0  0  0  0  0  0  0  0  0
  144.0310  140.7350   93.1160 C   0  0  0  0  0  0  0  0  0  0  0  0
  142.9450  141.1450   92.4200 C   0  0  0  0  0  0  0  0  0  0  0  0
  141.9000  141.8590   93.0970 C   0  0  0  0  0  0  0  0  0  0  0  0
  140.7440  142.3370   92.5400 C   0  0  0  0  0  0  0  0  0  0  0  0
  139.8170  143.0170   93.3310 C   0  0  0  0  0  0  0  0  0  0  0  0
  140.0700  143.2110   94.7000 C   0  0  0  0  0  0  0  0  0  0  0  0
  141.2480  142.7240   95.2750 C   0  0  0  0  0  0  0  0  0  0  0  0
  141.5620  142.9710   97.0120 Cl  0  0  0  0  0  0  0  0  0  0  0  0
  142.1630  142.0540   94.4980 C   0  0  0  0  0  0  0  0  0  0  0  0
  143.7770  141.2610   94.7560 S   0  0  0  0  0  0  0  0  0  0  0  0
  144.1360  138.2800   91.8470 H   0  0  0  0  0  0  0  0  0  0  0  0
  146.9825  138.6876   91.1119 H   0  0  0  0  0  0  0  0  0  0  0  0
  147.7749  137.2291   92.6747 H   0  0  0  0  0  0  0  0  0  0  0  0
  146.0920  136.9949   93.2977 H   0  0  0  0  0  0  0  0  0  0  0  0
  148.5271  135.8443   91.0037 H   0  0  0  0  0  0  0  0  0  0  0  0
  147.4413  134.5279   90.3981 H   0  0  0  0  0  0  0  0  0  0  0  0
  147.7517  137.1876   89.4140 H   0  0  0  0  0  0  0  0  0  0  0  0
  146.6683  135.8695   88.8302 H   0  0  0  0  0  0  0  0  0  0  0  0
  145.4454  137.8780   89.3967 H   0  0  0  0  0  0  0  0  0  0  0  0
  143.9252  136.7624   90.9837 H   0  0  0  0  0  0  0  0  0  0  0  0
  144.4556  135.6681   89.6740 H   0  0  0  0  0  0  0  0  0  0  0  0
  144.8002  135.2981   92.5498 H   0  0  0  0  0  0  0  0  0  0  0  0
  145.3974  134.2289   91.2362 H   0  0  0  0  0  0  0  0  0  0  0  0
  142.8639  140.9327   91.3437 H   0  0  0  0  0  0  0  0  0  0  0  0
  140.5460  142.1849   91.4687 H   0  0  0  0  0  0  0  0  0  0  0  0
  138.8885  143.4011   92.8833 H   0  0  0  0  0  0  0  0  0  0  0  0
  139.3384  143.7481   95.3215 H   0  0  0  0  0  0  0  0  0  0  0  0
  1  2  2  0
  2  3  1  0
  3  4  1  0
  4  5  1  0
  5  6  1  0
  6  7  1  0
  7  8  1  0
  8  9  1  0
  9 10  1  0
 10 11  1  0
  2 12  1  0
 12 13  2  0
 13 14  1  0
 14 15  2  0
 15 16  1  0
 16 17  2  0
 17 18  1  0
 18 19  1  0
 18 20  2  0
 20 21  1  0
  9  4  1  0
 21 12  1  0
 11  6  1  0
 20 14  1  0
  3 22  1  0
  4 23  1  6
  5 24  1  0
  5 25  1  0
  7 26  1  0
  7 27  1  0
  8 28  1  0
  8 29  1  0
  9 30  1  0
 10 31  1  0
 10 32  1  0
 11 33  1  0
 11 34  1  0
 13 35  1  0
 15 36  1  0
 16 37  1  0
 17 38  1  0
M  END
>  <meeko>  (8)
{"is_sidechain": false}

>  <source_group>  (8)
CHRFAM7A at A face

>  <source_system>  (8)
CHRNA7_encenicline

>  <source_run>  (8)
hybrid_A_face_seed1103_ex32

>  <source_seed>  (8)
1103

>  <vina_pose_rank>  (8)
8

>  <vina_affinity_kcal_mol>  (8)
-6.29

>  <vina_rmsd_to_crystal_angstrom>  (8)
7.8463000000000003

$$$$
CHRNA7_encenicline__hybrid_A_face_seed1103_ex32__pose09
     RDKit          3D

 38 41  0  0  0  0  0  0  0  0999 V2000
  144.9250  135.5140   91.8780 O   0  0  0  0  0  0  0  0  0  0  0  0
  144.6820  136.3410   91.0660 C   0  0  0  0  0  0  0  0  0  0  0  0
  145.7540  136.9120   90.2750 N   0  0  0  0  0  0  0  0  0  0  0  0
  147.1450  136.4550   90.4960 C   0  0  1  0  0  0  0  0  0  0  0  0
  148.0070  136.7760   89.2590 C   0  0  0  0  0  0  0  0  0  0  0  0
  149.0880  137.5960   89.5940 N   0  0  0  0  0  0  0  0  0  0  0  0
  149.8680  136.9920   90.5550 C   0  0  0  0  0  0  0  0  0  0  0  0
  149.0830  136.7150   91.8030 C   0  0  0  0  0  0  0  0  0  0  0  0
  147.7220  137.1470   91.6450 C   0  0  0  0  0  0  0  0  0  0  0  0
  147.7230  138.5810   91.3660 C   0  0  0  0  0  0  0  0  0  0  0  0
  148.6110  138.8350   90.0890 C   0  0  0  0  0  0  0  0  0  0  0  0
  143.2330  136.7950   90.8580 C   0  0  0  0  0  0  0  0  0  0  0  0
  142.1530  135.9840   90.7730 C   0  0  0  0  0  0  0  0  0  0  0  0
  140.8520  136.5580   90.5780 C   0  0  0  0  0  0  0  0  0  0  0  0
  139.6670  135.8790   90.4750 C   0  0  0  0  0  0  0  0  0  0  0  0
  138.4750  136.5790   90.2840 C   0  0  0  0  0  0  0  0  0  0  0  0
  138.4910  137.9810   90.1980 C   0  0  0  0  0  0  0  0  0  0  0  0
  139.6970  138.6810   90.3040 C   0  0  0  0  0  0  0  0  0  0  0  0
  139.7100  140.4600   90.1950 Cl  0  0  0  0  0  0  0  0  0  0  0  0
  140.8720  137.9930   90.4910 C   0  0  0  0  0  0  0  0  0  0  0  0
  142.6290  138.4190   90.6820 S   0  0  0  0  0  0  0  0  0  0  0  0
  145.5600  137.5980   89.5960 H   0  0  0  0  0  0  0  0  0  0  0  0
  147.1286  135.3700   90.6765 H   0  0  0  0  0  0  0  0  0  0  0  0
  148.3883  135.8359   88.8339 H   0  0  0  0  0  0  0  0  0  0  0  0
  147.3809  137.3075   88.5272 H   0  0  0  0  0  0  0  0  0  0  0  0
  150.2544  136.0421   90.1571 H   0  0  0  0  0  0  0  0  0  0  0  0
  150.6932  137.6734   90.8094 H   0  0  0  0  0  0  0  0  0  0  0  0
  149.0987  135.6345   92.0087 H   0  0  0  0  0  0  0  0  0  0  0  0
  149.5372  137.2658   92.6398 H   0  0  0  0  0  0  0  0  0  0  0  0
  147.1426  136.9301   92.5545 H   0  0  0  0  0  0  0  0  0  0  0  0
  146.6949  138.9244   91.1786 H   0  0  0  0  0  0  0  0  0  0  0  0
  148.1280  139.1345   92.2260 H   0  0  0  0  0  0  0  0  0  0  0  0
  148.0074  139.3316   89.3150 H   0  0  0  0  0  0  0  0  0  0  0  0
  149.4634  139.4771   90.3557 H   0  0  0  0  0  0  0  0  0  0  0  0
  142.2713  134.8933   90.8527 H   0  0  0  0  0  0  0  0  0  0  0  0
  139.6549  134.7812   90.5429 H   0  0  0  0  0  0  0  0  0  0  0  0
  137.5235  136.0333   90.2008 H   0  0  0  0  0  0  0  0  0  0  0  0
  137.5504  138.5309   90.0466 H   0  0  0  0  0  0  0  0  0  0  0  0
  1  2  2  0
  2  3  1  0
  3  4  1  0
  4  5  1  0
  5  6  1  0
  6  7  1  0
  7  8  1  0
  8  9  1  0
  9 10  1  0
 10 11  1  0
  2 12  1  0
 12 13  2  0
 13 14  1  0
 14 15  2  0
 15 16  1  0
 16 17  2  0
 17 18  1  0
 18 19  1  0
 18 20  2  0
 20 21  1  0
  9  4  1  0
 21 12  1  0
 11  6  1  0
 20 14  1  0
  3 22  1  0
  4 23  1  1
  5 24  1  0
  5 25  1  0
  7 26  1  0
  7 27  1  0
  8 28  1  0
  8 29  1  0
  9 30  1  0
 10 31  1  0
 10 32  1  0
 11 33  1  0
 11 34  1  0
 13 35  1  0
 15 36  1  0
 16 37  1  0
 17 38  1  0
M  END
>  <meeko>  (9)
{"is_sidechain": false}

>  <source_group>  (9)
CHRFAM7A at A face

>  <source_system>  (9)
CHRNA7_encenicline

>  <source_run>  (9)
hybrid_A_face_seed1103_ex32

>  <source_seed>  (9)
1103

>  <vina_pose_rank>  (9)
9

>  <vina_affinity_kcal_mol>  (9)
-6.266

>  <vina_rmsd_to_crystal_angstrom>  (9)
7.6631

$$$$
CHRNA7_encenicline__hybrid_A_face_seed1103_ex32__pose10
     RDKit          3D

 38 41  0  0  0  0  0  0  0  0999 V2000
  143.9150  142.2330   92.7010 O   0  0  0  0  0  0  0  0  0  0  0  0
  143.6220  141.2540   93.3000 C   0  0  0  0  0  0  0  0  0  0  0  0
  142.7450  141.3500   94.4510 N   0  0  0  0  0  0  0  0  0  0  0  0
  142.2290  142.6750   94.8650 C   0  0  1  0  0  0  0  0  0  0  0  0
  140.7770  142.8490   94.3790 C   0  0  0  0  0  0  0  0  0  0  0  0
  139.9100  143.0840   95.4500 N   0  0  0  0  0  0  0  0  0  0  0  0
  140.3010  144.2070   96.1460 C   0  0  0  0  0  0  0  0  0  0  0  0
  141.6910  144.0570   96.6900 C   0  0  0  0  0  0  0  0  0  0  0  0
  142.2390  142.7820   96.3210 C   0  0  0  0  0  0  0  0  0  0  0  0
  141.3760  141.7360   96.8650 C   0  0  0  0  0  0  0  0  0  0  0  0
  139.9150  141.9680   96.3220 C   0  0  0  0  0  0  0  0  0  0  0  0
  144.1700  139.8960   92.8480 C   0  0  0  0  0  0  0  0  0  0  0  0
  143.4440  138.8890   92.3110 C   0  0  0  0  0  0  0  0  0  0  0  0
  144.1000  137.6700   91.9320 C   0  0  0  0  0  0  0  0  0  0  0  0
  143.5120  136.5640   91.3770 C   0  0  0  0  0  0  0  0  0  0  0  0
  144.2850  135.4460   91.0630 C   0  0  0  0  0  0  0  0  0  0  0  0
  145.6680  135.4540   91.3160 C   0  0  0  0  0  0  0  0  0  0  0  0
  146.2740  136.5800   91.8810 C   0  0  0  0  0  0  0  0  0  0  0  0
  148.0280  136.5850   92.1980 Cl  0  0  0  0  0  0  0  0  0  0  0  0
  145.5140  137.6820   92.1920 C   0  0  0  0  0  0  0  0  0  0  0  0
  145.8130  139.3250   92.9120 S   0  0  0  0  0  0  0  0  0  0  0  0
  142.4940  140.5410   94.9520 H   0  0  0  0  0  0  0  0  0  0  0  0
  142.8720  143.4511   94.4242 H   0  0  0  0  0  0  0  0  0  0  0  0
  140.7304  143.7019   93.6859 H   0  0  0  0  0  0  0  0  0  0  0  0
  140.4650  141.9222   93.8753 H   0  0  0  0  0  0  0  0  0  0  0  0
  140.2727  145.0747   95.4705 H   0  0  0  0  0  0  0  0  0  0  0  0
  139.6115  144.3480   96.9914 H   0  0  0  0  0  0  0  0  0  0  0  0
  142.3276  144.8564   96.2830 H   0  0  0  0  0  0  0  0  0  0  0  0
  141.6536  144.1248   97.7873 H   0  0  0  0  0  0  0  0  0  0  0  0
  143.2641  142.6787   96.7063 H   0  0  0  0  0  0  0  0  0  0  0  0
  141.7399  140.7490   96.5435 H   0  0  0  0  0  0  0  0  0  0  0  0
  141.3822  141.7732   97.9644 H   0  0  0  0  0  0  0  0  0  0  0  0
  139.5799  141.0738   95.7759 H   0  0  0  0  0  0  0  0  0  0  0  0
  139.2347  142.1572   97.1655 H   0  0  0  0  0  0  0  0  0  0  0  0
  142.3596  139.0034   92.1659 H   0  0  0  0  0  0  0  0  0  0  0  0
  142.4300  136.5576   91.1789 H   0  0  0  0  0  0  0  0  0  0  0  0
  143.8125  134.5582   90.6175 H   0  0  0  0  0  0  0  0  0  0  0  0
  146.2754  134.5710   91.0685 H   0  0  0  0  0  0  0  0  0  0  0  0
  1  2  2  0
  2  3  1  0
  3  4  1  0
  4  5  1  0
  5  6  1  0
  6  7  1  0
  7  8  1  0
  8  9  1  0
  9 10  1  0
 10 11  1  0
  2 12  1  0
 12 13  2  0
 13 14  1  0
 14 15  2  0
 15 16  1  0
 16 17  2  0
 17 18  1  0
 18 19  1  0
 18 20  2  0
 20 21  1  0
  9  4  1  0
 21 12  1  0
 11  6  1  0
 20 14  1  0
  3 22  1  0
  4 23  1  6
  5 24  1  0
  5 25  1  0
  7 26  1  0
  7 27  1  0
  8 28  1  0
  8 29  1  0
  9 30  1  0
 10 31  1  0
 10 32  1  0
 11 33  1  0
 11 34  1  0
 13 35  1  0
 15 36  1  0
 16 37  1  0
 17 38  1  0
M  END
>  <meeko>  (10)
{"is_sidechain": false}

>  <source_group>  (10)
CHRFAM7A at A face

>  <source_system>  (10)
CHRNA7_encenicline

>  <source_run>  (10)
hybrid_A_face_seed1103_ex32

>  <source_seed>  (10)
1103

>  <vina_pose_rank>  (10)
10

>  <vina_affinity_kcal_mol>  (10)
-6.1760000000000002

>  <vina_rmsd_to_crystal_angstrom>  (10)
5.0122999999999998

$$$$
CHRNA7_encenicline__hybrid_A_face_seed1103_ex32__pose11
     RDKit          3D

 38 41  0  0  0  0  0  0  0  0999 V2000
  140.2390  140.7510   85.9480 O   0  0  0  0  0  0  0  0  0  0  0  0
  141.1350  140.3760   86.6250 C   0  0  0  0  0  0  0  0  0  0  0  0
  140.8690  139.8690   87.9580 N   0  0  0  0  0  0  0  0  0  0  0  0
  139.4750  139.8300   88.4570 C   0  0  1  0  0  0  0  0  0  0  0  0
  138.7620  138.5710   87.9260 C   0  0  0  0  0  0  0  0  0  0  0  0
  138.2960  137.7730   88.9740 N   0  0  0  0  0  0  0  0  0  0  0  0
  137.4340  138.4890   89.7750 C   0  0  0  0  0  0  0  0  0  0  0  0
  138.1060  139.6940   90.3640 C   0  0  0  0  0  0  0  0  0  0  0  0
  139.4680  139.7770   89.9160 C   0  0  0  0  0  0  0  0  0  0  0  0
  140.1660  138.5640   90.3350 C   0  0  0  0  0  0  0  0  0  0  0  0
  139.3910  137.3220   89.7510 C   0  0  0  0  0  0  0  0  0  0  0  0
  142.5680  140.4270   86.0830 C   0  0  0  0  0  0  0  0  0  0  0  0
  143.6800  140.0340   86.7460 C   0  0  0  0  0  0  0  0  0  0  0  0
  144.9590  140.1400   86.1050 C   0  0  0  0  0  0  0  0  0  0  0  0
  146.1710  139.7860   86.6350 C   0  0  0  0  0  0  0  0  0  0  0  0
  147.3370  139.9500   85.8860 C   0  0  0  0  0  0  0  0  0  0  0  0
  147.2670  140.4790   84.5860 C   0  0  0  0  0  0  0  0  0  0  0  0
  146.0330  140.8420   84.0380 C   0  0  0  0  0  0  0  0  0  0  0  0
  145.9510  141.5110   82.3870 Cl  0  0  0  0  0  0  0  0  0  0  0  0
  144.8840  140.6810   84.7740 C   0  0  0  0  0  0  0  0  0  0  0  0
  143.1090  140.9870   84.5260 S   0  0  0  0  0  0  0  0  0  0  0  0
  141.6080  139.5530   88.5250 H   0  0  0  0  0  0  0  0  0  0  0  0
  138.9563  140.7354   88.1089 H   0  0  0  0  0  0  0  0  0  0  0  0
  137.9093  138.8779   87.3025 H   0  0  0  0  0  0  0  0  0  0  0  0
  139.4831  137.9853   87.3369 H   0  0  0  0  0  0  0  0  0  0  0  0
  136.5749  138.8176   89.1718 H   0  0  0  0  0  0  0  0  0  0  0  0
  137.1068  137.8382   90.5992 H   0  0  0  0  0  0  0  0  0  0  0  0
  137.5657  140.5995   90.0509 H   0  0  0  0  0  0  0  0  0  0  0  0
  138.0958  139.6078   91.4606 H   0  0  0  0  0  0  0  0  0  0  0  0
  139.9558  140.6692   90.3356 H   0  0  0  0  0  0  0  0  0  0  0  0
  141.1960  138.5751   89.9490 H   0  0  0  0  0  0  0  0  0  0  0  0
  140.2021  138.5069   91.4329 H   0  0  0  0  0  0  0  0  0  0  0  0
  140.0697  136.7298   89.1196 H   0  0  0  0  0  0  0  0  0  0  0  0
  139.0220  136.6974   90.5779 H   0  0  0  0  0  0  0  0  0  0  0  0
  143.6039  139.6362   87.7687 H   0  0  0  0  0  0  0  0  0  0  0  0
  146.2256  139.3718   87.6526 H   0  0  0  0  0  0  0  0  0  0  0  0
  148.3101  139.6654   86.3128 H   0  0  0  0  0  0  0  0  0  0  0  0
  148.1870  140.6081   83.9970 H   0  0  0  0  0  0  0  0  0  0  0  0
  1  2  2  0
  2  3  1  0
  3  4  1  0
  4  5  1  0
  5  6  1  0
  6  7  1  0
  7  8  1  0
  8  9  1  0
  9 10  1  0
 10 11  1  0
  2 12  1  0
 12 13  2  0
 13 14  1  0
 14 15  2  0
 15 16  1  0
 16 17  2  0
 17 18  1  0
 18 19  1  0
 18 20  2  0
 20 21  1  0
  9  4  1  0
 21 12  1  0
 11  6  1  0
 20 14  1  0
  3 22  1  0
  4 23  1  1
  5 24  1  0
  5 25  1  0
  7 26  1  0
  7 27  1  0
  8 28  1  0
  8 29  1  0
  9 30  1  0
 10 31  1  0
 10 32  1  0
 11 33  1  0
 11 34  1  0
 13 35  1  0
 15 36  1  0
 16 37  1  0
 17 38  1  0
M  END
>  <meeko>  (11)
{"is_sidechain": false}

>  <source_group>  (11)
CHRFAM7A at A face

>  <source_system>  (11)
CHRNA7_encenicline

>  <source_run>  (11)
hybrid_A_face_seed1103_ex32

>  <source_seed>  (11)
1103

>  <vina_pose_rank>  (11)
11

>  <vina_affinity_kcal_mol>  (11)
-6.093

>  <vina_rmsd_to_crystal_angstrom>  (11)
5.9198000000000004

$$$$
CHRNA7_encenicline__hybrid_A_face_seed1103_ex32__pose12
     RDKit          3D

 38 41  0  0  0  0  0  0  0  0999 V2000
  144.9640  140.8740   94.8780 O   0  0  0  0  0  0  0  0  0  0  0  0
  144.2690  141.3080   94.0230 C   0  0  0  0  0  0  0  0  0  0  0  0
  143.0140  141.9470   94.3710 N   0  0  0  0  0  0  0  0  0  0  0  0
  142.6170  142.0460   95.7940 C   0  0  1  0  0  0  0  0  0  0  0  0
  142.9140  143.4620   96.3250 C   0  0  0  0  0  0  0  0  0  0  0  0
  141.7540  144.0770   96.8030 N   0  0  0  0  0  0  0  0  0  0  0  0
  141.1870  143.3180   97.8040 C   0  0  0  0  0  0  0  0  0  0  0  0
  140.8250  141.9470   97.3140 C   0  0  0  0  0  0  0  0  0  0  0  0
  141.1850  141.7980   95.9310 C   0  0  0  0  0  0  0  0  0  0  0  0
  140.4670  142.8080   95.1580 C   0  0  0  0  0  0  0  0  0  0  0  0
  140.8230  144.2260   95.7460 C   0  0  0  0  0  0  0  0  0  0  0  0
  144.7050  141.1910   92.5590 C   0  0  0  0  0  0  0  0  0  0  0  0
  144.0300  140.5430   91.5810 C   0  0  0  0  0  0  0  0  0  0  0  0
  144.5650  140.5220   90.2490 C   0  0  0  0  0  0  0  0  0  0  0  0
  144.0070  139.9160   89.1550 C   0  0  0  0  0  0  0  0  0  0  0  0
  144.6500  139.9800   87.9180 C   0  0  0  0  0  0  0  0  0  0  0  0
  145.8700  140.6670   87.7950 C   0  0  0  0  0  0  0  0  0  0  0  0
  146.4440  141.2890   88.9080 C   0  0  0  0  0  0  0  0  0  0  0  0
  147.9910  142.1600   88.7450 Cl  0  0  0  0  0  0  0  0  0  0  0  0
  145.8130  141.2260   90.1270 C   0  0  0  0  0  0  0  0  0  0  0  0
  146.1330  141.8430   91.8070 S   0  0  0  0  0  0  0  0  0  0  0  0
  142.4320  142.3120   93.6670 H   0  0  0  0  0  0  0  0  0  0  0  0
  143.1866  141.2991   96.3664 H   0  0  0  0  0  0  0  0  0  0  0  0
  143.6460  143.3920   97.1431 H   0  0  0  0  0  0  0  0  0  0  0  0
  143.3130  144.0672   95.4976 H   0  0  0  0  0  0  0  0  0  0  0  0
  141.9050  143.2240   98.6320 H   0  0  0  0  0  0  0  0  0  0  0  0
  140.2672  143.8195   98.1395 H   0  0  0  0  0  0  0  0  0  0  0  0
  141.3618  141.1952   97.9113 H   0  0  0  0  0  0  0  0  0  0  0  0
  139.7389  141.8066   97.4171 H   0  0  0  0  0  0  0  0  0  0  0  0
  140.9349  140.7875   95.5756 H   0  0  0  0  0  0  0  0  0  0  0  0
  140.7726  142.7555   94.1026 H   0  0  0  0  0  0  0  0  0  0  0  0
  139.3828  142.6331   95.2201 H   0  0  0  0  0  0  0  0  0  0  0  0
  141.2628  144.8514   94.9551 H   0  0  0  0  0  0  0  0  0  0  0  0
  139.9092  144.7059   96.1263 H   0  0  0  0  0  0  0  0  0  0  0  0
  143.0795  140.0367   91.8049 H   0  0  0  0  0  0  0  0  0  0  0  0
  143.0520  139.3788   89.2513 H   0  0  0  0  0  0  0  0  0  0  0  0
  144.2020  139.4928   87.0394 H   0  0  0  0  0  0  0  0  0  0  0  0
  146.3753  140.7156   86.8191 H   0  0  0  0  0  0  0  0  0  0  0  0
  1  2  2  0
  2  3  1  0
  3  4  1  0
  4  5  1  0
  5  6  1  0
  6  7  1  0
  7  8  1  0
  8  9  1  0
  9 10  1  0
 10 11  1  0
  2 12  1  0
 12 13  2  0
 13 14  1  0
 14 15  2  0
 15 16  1  0
 16 17  2  0
 17 18  1  0
 18 19  1  0
 18 20  2  0
 20 21  1  0
  9  4  1  0
 21 12  1  0
 11  6  1  0
 20 14  1  0
  3 22  1  0
  4 23  1  1
  5 24  1  0
  5 25  1  0
  7 26  1  0
  7 27  1  0
  8 28  1  0
  8 29  1  0
  9 30  1  0
 10 31  1  0
 10 32  1  0
 11 33  1  0
 11 34  1  0
 13 35  1  0
 15 36  1  0
 16 37  1  0
 17 38  1  0
M  END
>  <meeko>  (12)
{"is_sidechain": false}

>  <source_group>  (12)
CHRFAM7A at A face

>  <source_system>  (12)
CHRNA7_encenicline

>  <source_run>  (12)
hybrid_A_face_seed1103_ex32

>  <source_seed>  (12)
1103

>  <vina_pose_rank>  (12)
12

>  <vina_affinity_kcal_mol>  (12)
-6.0199999999999996

>  <vina_rmsd_to_crystal_angstrom>  (12)
6.6025999999999998

$$$$
CHRNA7_encenicline__hybrid_A_face_seed1103_ex32__pose13
     RDKit          3D

 38 41  0  0  0  0  0  0  0  0999 V2000
  145.0580  137.4370   91.3850 O   0  0  0  0  0  0  0  0  0  0  0  0
  144.5050  138.4110   91.0000 C   0  0  0  0  0  0  0  0  0  0  0  0
  145.2630  139.6260   90.7710 N   0  0  0  0  0  0  0  0  0  0  0  0
  146.7220  139.6330   91.0250 C   0  0  1  0  0  0  0  0  0  0  0  0
  147.4870  139.4730   89.6960 C   0  0  0  0  0  0  0  0  0  0  0  0
  148.3450  140.5530   89.4730 N   0  0  0  0  0  0  0  0  0  0  0  0
  149.2430  140.6740   90.5110 C   0  0  0  0  0  0  0  0  0  0  0  0
  148.5420  140.8920   91.8190 C   0  0  0  0  0  0  0  0  0  0  0  0
  147.1190  140.9010   91.6290 C   0  0  0  0  0  0  0  0  0  0  0  0
  146.7840  141.9780   90.7010 C   0  0  0  0  0  0  0  0  0  0  0  0
  147.5910  141.7470   89.3660 C   0  0  0  0  0  0  0  0  0  0  0  0
  142.9940  138.3760   90.7460 C   0  0  0  0  0  0  0  0  0  0  0  0
  142.2220  137.2650   90.7210 C   0  0  0  0  0  0  0  0  0  0  0  0
  140.8140  137.3900   90.4710 C   0  0  0  0  0  0  0  0  0  0  0  0
  139.9010  136.3700   90.4160 C   0  0  0  0  0  0  0  0  0  0  0  0
  138.5580  136.6490   90.1600 C   0  0  0  0  0  0  0  0  0  0  0  0
  138.1420  137.9760   89.9590 C   0  0  0  0  0  0  0  0  0  0  0  0
  139.0690  139.0220   90.0150 C   0  0  0  0  0  0  0  0  0  0  0  0
  138.5350  140.7040   89.7610 Cl  0  0  0  0  0  0  0  0  0  0  0  0
  140.3920  138.7490   90.2670 C   0  0  0  0  0  0  0  0  0  0  0  0
  141.9250  139.7130   90.4340 S   0  0  0  0  0  0  0  0  0  0  0  0
  144.8120  140.4390   90.4490 H   0  0  0  0  0  0  0  0  0  0  0  0
  146.9596  138.8005   91.7036 H   0  0  0  0  0  0  0  0  0  0  0  0
  148.0786  138.5464   89.7320 H   0  0  0  0  0  0  0  0  0  0  0  0
  146.7552  139.4347   88.8756 H   0  0  0  0  0  0  0  0  0  0  0  0
  149.8420  139.7536   90.5751 H   0  0  0  0  0  0  0  0  0  0  0  0
  149.8852  141.5449   90.3132 H   0  0  0  0  0  0  0  0  0  0  0  0
  148.8098  140.0818   92.5132 H   0  0  0  0  0  0  0  0  0  0  0  0
  148.8528  141.8626   92.2329 H   0  0  0  0  0  0  0  0  0  0  0  0
  146.6052  141.0454   92.5908 H   0  0  0  0  0  0  0  0  0  0  0  0
  145.7044  141.9657   90.4904 H   0  0  0  0  0  0  0  0  0  0  0  0
  147.0456  142.9524   91.1394 H   0  0  0  0  0  0  0  0  0  0  0  0
  146.8895  141.6638   88.5228 H   0  0  0  0  0  0  0  0  0  0  0  0
  148.2693  142.5959   89.1950 H   0  0  0  0  0  0  0  0  0  0  0  0
  142.6695  136.2746   90.8908 H   0  0  0  0  0  0  0  0  0  0  0  0
  140.2266  135.3312   90.5736 H   0  0  0  0  0  0  0  0  0  0  0  0
  137.8249  135.8301   90.1155 H   0  0  0  0  0  0  0  0  0  0  0  0
  137.0828  138.1932   89.7567 H   0  0  0  0  0  0  0  0  0  0  0  0
  1  2  2  0
  2  3  1  0
  3  4  1  0
  4  5  1  0
  5  6  1  0
  6  7  1  0
  7  8  1  0
  8  9  1  0
  9 10  1  0
 10 11  1  0
  2 12  1  0
 12 13  2  0
 13 14  1  0
 14 15  2  0
 15 16  1  0
 16 17  2  0
 17 18  1  0
 18 19  1  0
 18 20  2  0
 20 21  1  0
  9  4  1  0
 21 12  1  0
 11  6  1  0
 20 14  1  0
  3 22  1  0
  4 23  1  1
  5 24  1  0
  5 25  1  0
  7 26  1  0
  7 27  1  0
  8 28  1  0
  8 29  1  0
  9 30  1  0
 10 31  1  0
 10 32  1  0
 11 33  1  0
 11 34  1  0
 13 35  1  0
 15 36  1  0
 16 37  1  0
 17 38  1  0
M  END
>  <meeko>  (13)
{"is_sidechain": false}

>  <source_group>  (13)
CHRFAM7A at A face

>  <source_system>  (13)
CHRNA7_encenicline

>  <source_run>  (13)
hybrid_A_face_seed1103_ex32

>  <source_seed>  (13)
1103

>  <vina_pose_rank>  (13)
13

>  <vina_affinity_kcal_mol>  (13)
-5.9619999999999997

>  <vina_rmsd_to_crystal_angstrom>  (13)
7.1459999999999999

$$$$
CHRNA7_encenicline__hybrid_A_face_seed1103_ex32__pose14
     RDKit          3D

 38 41  0  0  0  0  0  0  0  0999 V2000
  138.5080  139.8120   88.1210 O   0  0  0  0  0  0  0  0  0  0  0  0
  138.8460  140.9290   87.9220 C   0  0  0  0  0  0  0  0  0  0  0  0
  139.4240  141.2910   86.6420 N   0  0  0  0  0  0  0  0  0  0  0  0
  139.5870  140.2540   85.5980 C   0  0  1  0  0  0  0  0  0  0  0  0
  139.8870  140.9190   84.2400 C   0  0  0  0  0  0  0  0  0  0  0  0
  141.1050  140.4770   83.7170 N   0  0  0  0  0  0  0  0  0  0  0  0
  141.0940  139.1070   83.5690 C   0  0  0  0  0  0  0  0  0  0  0  0
  140.8650  138.4150   84.8800 C   0  0  0  0  0  0  0  0  0  0  0  0
  140.7060  139.3780   85.9340 C   0  0  0  0  0  0  0  0  0  0  0  0
  141.9190  140.1890   86.0040 C   0  0  0  0  0  0  0  0  0  0  0  0
  142.1590  140.8440   84.5900 C   0  0  0  0  0  0  0  0  0  0  0  0
  138.6650  141.9820   89.0210 C   0  0  0  0  0  0  0  0  0  0  0  0
  138.0300  143.1690   88.8830 C   0  0  0  0  0  0  0  0  0  0  0  0
  137.9380  144.0560   90.0080 C   0  0  0  0  0  0  0  0  0  0  0  0
  137.3320  145.2830   90.0340 C   0  0  0  0  0  0  0  0  0  0  0  0
  137.3240  146.0350   91.2090 C   0  0  0  0  0  0  0  0  0  0  0  0
  137.9400  145.5320   92.3680 C   0  0  0  0  0  0  0  0  0  0  0  0
  138.5600  144.2790   92.3490 C   0  0  0  0  0  0  0  0  0  0  0  0
  139.3380  143.6450   93.8230 Cl  0  0  0  0  0  0  0  0  0  0  0  0
  138.5690  143.5370   91.1920 C   0  0  0  0  0  0  0  0  0  0  0  0
  139.2140  141.9190   90.6720 S   0  0  0  0  0  0  0  0  0  0  0  0
  139.7050  142.2180   86.4690 H   0  0  0  0  0  0  0  0  0  0  0  0
  138.6557  139.6717   85.5385 H   0  0  0  0  0  0  0  0  0  0  0  0
  139.0818  140.6698   83.5332 H   0  0  0  0  0  0  0  0  0  0  0  0
  139.9483  142.0068   84.3917 H   0  0  0  0  0  0  0  0  0  0  0  0
  140.2892  138.8290   82.8726 H   0  0  0  0  0  0  0  0  0  0  0  0
  142.0739  138.7937   83.1796 H   0  0  0  0  0  0  0  0  0  0  0  0
  139.9557  137.7998   84.8110 H   0  0  0  0  0  0  0  0  0  0  0  0
  141.7349  137.7804   85.1050 H   0  0  0  0  0  0  0  0  0  0  0  0
  140.5231  138.8707   86.8927 H   0  0  0  0  0  0  0  0  0  0  0  0
  141.7969  140.9761   86.7626 H   0  0  0  0  0  0  0  0  0  0  0  0
  142.7788  139.5616   86.2819 H   0  0  0  0  0  0  0  0  0  0  0  0
  142.1864  141.9389   84.6925 H   0  0  0  0  0  0  0  0  0  0  0  0
  143.1165  140.4913   84.1791 H   0  0  0  0  0  0  0  0  0  0  0  0
  137.5878  143.4520   87.9164 H   0  0  0  0  0  0  0  0  0  0  0  0
  136.8504  145.6768   89.1268 H   0  0  0  0  0  0  0  0  0  0  0  0
  136.8361  147.0207   91.2285 H   0  0  0  0  0  0  0  0  0  0  0  0
  137.9343  146.1265   93.2935 H   0  0  0  0  0  0  0  0  0  0  0  0
  1  2  2  0
  2  3  1  0
  3  4  1  0
  4  5  1  0
  5  6  1  0
  6  7  1  0
  7  8  1  0
  8  9  1  0
  9 10  1  0
 10 11  1  0
  2 12  1  0
 12 13  2  0
 13 14  1  0
 14 15  2  0
 15 16  1  0
 16 17  2  0
 17 18  1  0
 18 19  1  0
 18 20  2  0
 20 21  1  0
  9  4  1  0
 21 12  1  0
 11  6  1  0
 20 14  1  0
  3 22  1  0
  4 23  1  6
  5 24  1  0
  5 25  1  0
  7 26  1  0
  7 27  1  0
  8 28  1  0
  8 29  1  0
  9 30  1  0
 10 31  1  0
 10 32  1  0
 11 33  1  0
 11 34  1  0
 13 35  1  0
 15 36  1  0
 16 37  1  0
 17 38  1  0
M  END
>  <meeko>  (14)
{"is_sidechain": false}

>  <source_group>  (14)
CHRFAM7A at A face

>  <source_system>  (14)
CHRNA7_encenicline

>  <source_run>  (14)
hybrid_A_face_seed1103_ex32

>  <source_seed>  (14)
1103

>  <vina_pose_rank>  (14)
14

>  <vina_affinity_kcal_mol>  (14)
-5.9530000000000003

>  <vina_rmsd_to_crystal_angstrom>  (14)
8.4647000000000006

$$$$
CHRNA7_encenicline__hybrid_A_face_seed1103_ex32__pose15
     RDKit          3D

 38 41  0  0  0  0  0  0  0  0999 V2000
  147.9140  140.4580   91.4130 O   0  0  0  0  0  0  0  0  0  0  0  0
  147.7070  139.6790   90.5450 C   0  0  0  0  0  0  0  0  0  0  0  0
  148.3080  139.8780   89.2410 N   0  0  0  0  0  0  0  0  0  0  0  0
  149.1720  141.0580   89.0090 C   0  0  1  0  0  0  0  0  0  0  0  0
  150.5330  140.6090   88.4410 C   0  0  0  0  0  0  0  0  0  0  0  0
  150.7840  141.2010   87.2000 N   0  0  0  0  0  0  0  0  0  0  0  0
  150.7600  142.5740   87.3100 C   0  0  0  0  0  0  0  0  0  0  0  0
  149.4290  143.0600   87.8040 C   0  0  0  0  0  0  0  0  0  0  0  0
  148.5470  141.9530   88.0400 C   0  0  0  0  0  0  0  0  0  0  0  0
  148.3760  141.2240   86.7850 C   0  0  0  0  0  0  0  0  0  0  0  0
  149.8000  140.7890   86.2680 C   0  0  0  0  0  0  0  0  0  0  0  0
  146.8090  138.4660   90.8130 C   0  0  0  0  0  0  0  0  0  0  0  0
  147.2210  137.2630   91.2760 C   0  0  0  0  0  0  0  0  0  0  0  0
  146.2590  136.2190   91.4810 C   0  0  0  0  0  0  0  0  0  0  0  0
  146.5110  134.9540   91.9420 C   0  0  0  0  0  0  0  0  0  0  0  0
  145.4650  134.0420   92.0880 C   0  0  0  0  0  0  0  0  0  0  0  0
  144.1520  134.4210   91.7620 C   0  0  0  0  0  0  0  0  0  0  0  0
  143.8870  135.7110   91.2920 C   0  0  0  0  0  0  0  0  0  0  0  0
  142.2190  136.1860   90.8810 Cl  0  0  0  0  0  0  0  0  0  0  0  0
  144.9160  136.6110   91.1460 C   0  0  0  0  0  0  0  0  0  0  0  0
  145.0870  138.3350   90.5970 S   0  0  0  0  0  0  0  0  0  0  0  0
  148.1430  139.2330   88.5150 H   0  0  0  0  0  0  0  0  0  0  0  0
  149.3131  141.5782   89.9679 H   0  0  0  0  0  0  0  0  0  0  0  0
  151.3281  140.8986   89.1438 H   0  0  0  0  0  0  0  0  0  0  0  0
  150.5112  139.5173   88.3076 H   0  0  0  0  0  0  0  0  0  0  0  0
  151.5414  142.8902   88.0167 H   0  0  0  0  0  0  0  0  0  0  0  0
  150.9379  143.0045   86.3135 H   0  0  0  0  0  0  0  0  0  0  0  0
  149.5719  143.6157   88.7425 H   0  0  0  0  0  0  0  0  0  0  0  0
  148.9830  143.7144   87.0406 H   0  0  0  0  0  0  0  0  0  0  0  0
  147.5770  142.3098   88.4165 H   0  0  0  0  0  0  0  0  0  0  0  0
  147.7534  140.3330   86.9541 H   0  0  0  0  0  0  0  0  0  0  0  0
  147.8809  141.8635   86.0394 H   0  0  0  0  0  0  0  0  0  0  0  0
  149.8327  139.6949   86.1591 H   0  0  0  0  0  0  0  0  0  0  0  0
  149.9969  141.2592   85.2932 H   0  0  0  0  0  0  0  0  0  0  0  0
  148.2849  137.0872   91.4934 H   0  0  0  0  0  0  0  0  0  0  0  0
  147.5388  134.6568   92.1973 H   0  0  0  0  0  0  0  0  0  0  0  0
  145.6684  133.0264   92.4583 H   0  0  0  0  0  0  0  0  0  0  0  0
  143.3292  133.7001   91.8770 H   0  0  0  0  0  0  0  0  0  0  0  0
  1  2  2  0
  2  3  1  0
  3  4  1  0
  4  5  1  0
  5  6  1  0
  6  7  1  0
  7  8  1  0
  8  9  1  0
  9 10  1  0
 10 11  1  0
  2 12  1  0
 12 13  2  0
 13 14  1  0
 14 15  2  0
 15 16  1  0
 16 17  2  0
 17 18  1  0
 18 19  1  0
 18 20  2  0
 20 21  1  0
  9  4  1  0
 21 12  1  0
 11  6  1  0
 20 14  1  0
  3 22  1  0
  4 23  1  1
  5 24  1  0
  5 25  1  0
  7 26  1  0
  7 27  1  0
  8 28  1  0
  8 29  1  0
  9 30  1  0
 10 31  1  0
 10 32  1  0
 11 33  1  0
 11 34  1  0
 13 35  1  0
 15 36  1  0
 16 37  1  0
 17 38  1  0
M  END
>  <meeko>  (15)
{"is_sidechain": false}

>  <source_group>  (15)
CHRFAM7A at A face

>  <source_system>  (15)
CHRNA7_encenicline

>  <source_run>  (15)
hybrid_A_face_seed1103_ex32

>  <source_seed>  (15)
1103

>  <vina_pose_rank>  (15)
15

>  <vina_affinity_kcal_mol>  (15)
-5.9509999999999996

>  <vina_rmsd_to_crystal_angstrom>  (15)
7.1315999999999997

$$$$
CHRNA7_encenicline__hybrid_A_face_seed1103_ex32__pose16
     RDKit          3D

 38 41  0  0  0  0  0  0  0  0999 V2000
  141.7670  136.9090   90.8720 O   0  0  0  0  0  0  0  0  0  0  0  0
  142.1240  138.0200   90.6700 C   0  0  0  0  0  0  0  0  0  0  0  0
  141.1500  139.0370   90.3240 N   0  0  0  0  0  0  0  0  0  0  0  0
  139.7190  138.6720   90.2250 C   0  0  1  0  0  0  0  0  0  0  0  0
  138.8400  139.8940   90.5550 C   0  0  0  0  0  0  0  0  0  0  0  0
  137.9930  140.2110   89.4900 N   0  0  0  0  0  0  0  0  0  0  0  0
  137.1890  139.1350   89.1800 C   0  0  0  0  0  0  0  0  0  0  0  0
  138.0040  137.9370   88.7920 C   0  0  0  0  0  0  0  0  0  0  0  0
  139.4070  138.2390   88.8660 C   0  0  0  0  0  0  0  0  0  0  0  0
  139.6870  139.3470   87.9550 C   0  0  0  0  0  0  0  0  0  0  0  0
  138.7650  140.5610   88.3550 C   0  0  0  0  0  0  0  0  0  0  0  0
  143.6120  138.3710   90.7800 C   0  0  0  0  0  0  0  0  0  0  0  0
  144.6370  137.4880   90.7500 C   0  0  0  0  0  0  0  0  0  0  0  0
  145.9850  137.9680   90.8630 C   0  0  0  0  0  0  0  0  0  0  0  0
  147.1260  137.2100   90.8480 C   0  0  0  0  0  0  0  0  0  0  0  0
  148.3730  137.8230   90.9710 C   0  0  0  0  0  0  0  0  0  0  0  0
  148.4590  139.2190   91.1090 C   0  0  0  0  0  0  0  0  0  0  0  0
  147.2990  139.9990   91.1240 C   0  0  0  0  0  0  0  0  0  0  0  0
  147.4140  141.7690   91.2980 Cl  0  0  0  0  0  0  0  0  0  0  0  0
  146.0690  139.3970   91.0040 C   0  0  0  0  0  0  0  0  0  0  0  0
  144.3350  139.9430   90.9670 S   0  0  0  0  0  0  0  0  0  0  0  0
  141.4380  139.9630   90.1570 H   0  0  0  0  0  0  0  0  0  0  0  0
  139.5188  137.8578   90.9370 H   0  0  0  0  0  0  0  0  0  0  0  0
  138.2308  139.6683   91.4427 H   0  0  0  0  0  0  0  0  0  0  0  0
  139.4981  140.7549   90.7441 H   0  0  0  0  0  0  0  0  0  0  0  0
  136.5758  138.8818   90.0574 H   0  0  0  0  0  0  0  0  0  0  0  0
  136.5530  139.4124   88.3264 H   0  0  0  0  0  0  0  0  0  0  0  0
  137.7756  137.1065   89.4762 H   0  0  0  0  0  0  0  0  0  0  0  0
  137.7541  137.6556   87.7584 H   0  0  0  0  0  0  0  0  0  0  0  0
  140.0046  137.3552   88.5981 H   0  0  0  0  0  0  0  0  0  0  0  0
  140.7441  139.6393   88.0386 H   0  0  0  0  0  0  0  0  0  0  0  0
  139.4861  139.0443   86.9167 H   0  0  0  0  0  0  0  0  0  0  0  0
  139.3903  141.4345   88.5916 H   0  0  0  0  0  0  0  0  0  0  0  0
  138.0961  140.8064   87.5169 H   0  0  0  0  0  0  0  0  0  0  0  0
  144.4388  136.4116   90.6400 H   0  0  0  0  0  0  0  0  0  0  0  0
  147.0588  136.1175   90.7389 H   0  0  0  0  0  0  0  0  0  0  0  0
  149.2889  137.2139   90.9600 H   0  0  0  0  0  0  0  0  0  0  0  0
  149.4435  139.7000   91.2056 H   0  0  0  0  0  0  0  0  0  0  0  0
  1  2  2  0
  2  3  1  0
  3  4  1  0
  4  5  1  0
  5  6  1  0
  6  7  1  0
  7  8  1  0
  8  9  1  0
  9 10  1  0
 10 11  1  0
  2 12  1  0
 12 13  2  0
 13 14  1  0
 14 15  2  0
 15 16  1  0
 16 17  2  0
 17 18  1  0
 18 19  1  0
 18 20  2  0
 20 21  1  0
  9  4  1  0
 21 12  1  0
 11  6  1  0
 20 14  1  0
  3 22  1  0
  4 23  1  1
  5 24  1  0
  5 25  1  0
  7 26  1  0
  7 27  1  0
  8 28  1  0
  8 29  1  0
  9 30  1  0
 10 31  1  0
 10 32  1  0
 11 33  1  0
 11 34  1  0
 13 35  1  0
 15 36  1  0
 16 37  1  0
 17 38  1  0
M  END
>  <meeko>  (16)
{"is_sidechain": false}

>  <source_group>  (16)
CHRFAM7A at A face

>  <source_system>  (16)
CHRNA7_encenicline

>  <source_run>  (16)
hybrid_A_face_seed1103_ex32

>  <source_seed>  (16)
1103

>  <vina_pose_rank>  (16)
16

>  <vina_affinity_kcal_mol>  (16)
-5.8659999999999997

>  <vina_rmsd_to_crystal_angstrom>  (16)
3.2168999999999999

$$$$
CHRNA7_encenicline__hybrid_A_face_seed1103_ex32__pose17
     RDKit          3D

 38 41  0  0  0  0  0  0  0  0999 V2000
  144.6890  142.2420   94.9330 O   0  0  0  0  0  0  0  0  0  0  0  0
  143.8380  141.6490   94.3620 C   0  0  0  0  0  0  0  0  0  0  0  0
  142.4450  141.9410   94.6400 N   0  0  0  0  0  0  0  0  0  0  0  0
  142.1040  142.9790   95.6400 C   0  0  1  0  0  0  0  0  0  0  0  0
  140.8590  143.7630   95.1800 C   0  0  0  0  0  0  0  0  0  0  0  0
  139.8300  143.6770   96.1210 N   0  0  0  0  0  0  0  0  0  0  0  0
  140.2540  144.1580   97.3400 C   0  0  0  0  0  0  0  0  0  0  0  0
  141.4300  143.3820   97.8560 C   0  0  0  0  0  0  0  0  0  0  0  0
  141.8010  142.3540   96.9240 C   0  0  0  0  0  0  0  0  0  0  0  0
  140.6580  141.4630   96.7430 C   0  0  0  0  0  0  0  0  0  0  0  0
  139.4290  142.3260   96.2650 C   0  0  0  0  0  0  0  0  0  0  0  0
  144.2200  140.5810   93.3310 C   0  0  0  0  0  0  0  0  0  0  0  0
  143.8390  139.2820   93.3590 C   0  0  0  0  0  0  0  0  0  0  0  0
  144.2760  138.3960   92.3180 C   0  0  0  0  0  0  0  0  0  0  0  0
  143.9790  137.0640   92.2010 C   0  0  0  0  0  0  0  0  0  0  0  0
  144.4810  136.3280   91.1280 C   0  0  0  0  0  0  0  0  0  0  0  0
  145.2930  136.9540   90.1660 C   0  0  0  0  0  0  0  0  0  0  0  0
  145.5990  138.3130   90.2790 C   0  0  0  0  0  0  0  0  0  0  0  0
  146.6280  139.1020   89.0550 Cl  0  0  0  0  0  0  0  0  0  0  0  0
  145.1060  139.0400   91.3360 C   0  0  0  0  0  0  0  0  0  0  0  0
  145.2090  140.7620   91.9110 S   0  0  0  0  0  0  0  0  0  0  0  0
  141.7320  141.4540   94.1670 H   0  0  0  0  0  0  0  0  0  0  0  0
  142.9632  143.6581   95.7429 H   0  0  0  0  0  0  0  0  0  0  0  0
  141.1314  144.8198   95.0422 H   0  0  0  0  0  0  0  0  0  0  0  0
  140.5032  143.3270   94.2348 H   0  0  0  0  0  0  0  0  0  0  0  0
  140.5432  145.2133   97.2273 H   0  0  0  0  0  0  0  0  0  0  0  0
  139.4282  144.0541   98.0593 H   0  0  0  0  0  0  0  0  0  0  0  0
  142.2802  144.0652   97.9991 H   0  0  0  0  0  0  0  0  0  0  0  0
  141.1556  142.9135   98.8127 H   0  0  0  0  0  0  0  0  0  0  0  0
  142.6730  141.7955   97.2951 H   0  0  0  0  0  0  0  0  0  0  0  0
  140.8957  140.7023   95.9848 H   0  0  0  0  0  0  0  0  0  0  0  0
  140.4196  140.9552   97.6892 H   0  0  0  0  0  0  0  0  0  0  0  0
  139.0673  141.9456   95.2983 H   0  0  0  0  0  0  0  0  0  0  0  0
  138.6219  142.2598   97.0095 H   0  0  0  0  0  0  0  0  0  0  0  0
  143.1999  138.9089   94.1728 H   0  0  0  0  0  0  0  0  0  0  0  0
  143.3440  136.5744   92.9540 H   0  0  0  0  0  0  0  0  0  0  0  0
  144.2418  135.2584   91.0344 H   0  0  0  0  0  0  0  0  0  0  0  0
  145.6891  136.3718   89.3209 H   0  0  0  0  0  0  0  0  0  0  0  0
  1  2  2  0
  2  3  1  0
  3  4  1  0
  4  5  1  0
  5  6  1  0
  6  7  1  0
  7  8  1  0
  8  9  1  0
  9 10  1  0
 10 11  1  0
  2 12  1  0
 12 13  2  0
 13 14  1  0
 14 15  2  0
 15 16  1  0
 16 17  2  0
 17 18  1  0
 18 19  1  0
 18 20  2  0
 20 21  1  0
  9  4  1  0
 21 12  1  0
 11  6  1  0
 20 14  1  0
  3 22  1  0
  4 23  1  1
  5 24  1  0
  5 25  1  0
  7 26  1  0
  7 27  1  0
  8 28  1  0
  8 29  1  0
  9 30  1  0
 10 31  1  0
 10 32  1  0
 11 33  1  0
 11 34  1  0
 13 35  1  0
 15 36  1  0
 16 37  1  0
 17 38  1  0
M  END
>  <meeko>  (17)
{"is_sidechain": false}

>  <source_group>  (17)
CHRFAM7A at A face

>  <source_system>  (17)
CHRNA7_encenicline

>  <source_run>  (17)
hybrid_A_face_seed1103_ex32

>  <source_seed>  (17)
1103

>  <vina_pose_rank>  (17)
17

>  <vina_affinity_kcal_mol>  (17)
-5.8559999999999999

>  <vina_rmsd_to_crystal_angstrom>  (17)
5.7408000000000001

$$$$
CHRNA7_encenicline__hybrid_A_face_seed1103_ex32__pose18
     RDKit          3D

 38 41  0  0  0  0  0  0  0  0999 V2000
  147.6310  140.7060   90.2110 O   0  0  0  0  0  0  0  0  0  0  0  0
  147.8140  139.9590   91.1120 C   0  0  0  0  0  0  0  0  0  0  0  0
  148.8580  140.2390   92.0790 N   0  0  0  0  0  0  0  0  0  0  0  0
  149.6860  141.4570   91.9250 C   0  0  1  0  0  0  0  0  0  0  0  0
  149.9090  142.1180   93.3000 C   0  0  0  0  0  0  0  0  0  0  0  0
  151.2700  142.2170   93.5990 N   0  0  0  0  0  0  0  0  0  0  0  0
  151.9230  142.9430   92.6260 C   0  0  0  0  0  0  0  0  0  0  0  0
  151.7830  142.3010   91.2780 C   0  0  0  0  0  0  0  0  0  0  0  0
  150.9900  141.1070   91.3700 C   0  0  0  0  0  0  0  0  0  0  0  0
  151.6500  140.1870   92.2930 C   0  0  0  0  0  0  0  0  0  0  0  0
  151.8370  140.9210   93.6750 C   0  0  0  0  0  0  0  0  0  0  0  0
  146.9420  138.7060   91.2470 C   0  0  0  0  0  0  0  0  0  0  0  0
  147.3720  137.4780   91.6180 C   0  0  0  0  0  0  0  0  0  0  0  0
  146.4330  136.3970   91.7020 C   0  0  0  0  0  0  0  0  0  0  0  0
  146.7060  135.1030   92.0610 C   0  0  0  0  0  0  0  0  0  0  0  0
  145.6810  134.1570   92.0960 C   0  0  0  0  0  0  0  0  0  0  0  0
  144.3680  134.5300   91.7620 C   0  0  0  0  0  0  0  0  0  0  0  0
  144.0820  135.8490   91.3960 C   0  0  0  0  0  0  0  0  0  0  0  0
  142.4140  136.3180   90.9760 Cl  0  0  0  0  0  0  0  0  0  0  0  0
  145.0900  136.7830   91.3610 C   0  0  0  0  0  0  0  0  0  0  0  0
  145.2310  138.5520   90.9670 S   0  0  0  0  0  0  0  0  0  0  0  0
  149.0140  139.6250   92.8320 H   0  0  0  0  0  0  0  0  0  0  0  0
  149.1619  142.1506   91.2511 H   0  0  0  0  0  0  0  0  0  0  0  0
  149.4700  143.1265   93.2885 H   0  0  0  0  0  0  0  0  0  0  0  0
  149.4285  141.4941   94.0680 H   0  0  0  0  0  0  0  0  0  0  0  0
  151.4944  143.9553   92.5866 H   0  0  0  0  0  0  0  0  0  0  0  0
  152.9922  142.9816   92.8818 H   0  0  0  0  0  0  0  0  0  0  0  0
  151.2958  143.0071   90.5895 H   0  0  0  0  0  0  0  0  0  0  0  0
  152.7831  142.0362   90.9042 H   0  0  0  0  0  0  0  0  0  0  0  0
  150.8743  140.6454   90.3783 H   0  0  0  0  0  0  0  0  0  0  0  0
  151.0297  139.2889   92.4299 H   0  0  0  0  0  0  0  0  0  0  0  0
  152.6274  139.8829   91.8904 H   0  0  0  0  0  0  0  0  0  0  0  0
  151.3345  140.3463   94.4669 H   0  0  0  0  0  0  0  0  0  0  0  0
  152.9093  141.0017   93.9065 H   0  0  0  0  0  0  0  0  0  0  0  0
  148.4333  137.3099   91.8533 H   0  0  0  0  0  0  0  0  0  0  0  0
  147.7337  134.8100   92.3217 H   0  0  0  0  0  0  0  0  0  0  0  0
  145.9008  133.1187   92.3852 H   0  0  0  0  0  0  0  0  0  0  0  0
  143.5622  133.7817   91.7885 H   0  0  0  0  0  0  0  0  0  0  0  0
  1  2  2  0
  2  3  1  0
  3  4  1  0
  4  5  1  0
  5  6  1  0
  6  7  1  0
  7  8  1  0
  8  9  1  0
  9 10  1  0
 10 11  1  0
  2 12  1  0
 12 13  2  0
 13 14  1  0
 14 15  2  0
 15 16  1  0
 16 17  2  0
 17 18  1  0
 18 19  1  0
 18 20  2  0
 20 21  1  0
  9  4  1  0
 21 12  1  0
 11  6  1  0
 20 14  1  0
  3 22  1  0
  4 23  1  6
  5 24  1  0
  5 25  1  0
  7 26  1  0
  7 27  1  0
  8 28  1  0
  8 29  1  0
  9 30  1  0
 10 31  1  0
 10 32  1  0
 11 33  1  0
 11 34  1  0
 13 35  1  0
 15 36  1  0
 16 37  1  0
 17 38  1  0
M  END
>  <meeko>  (18)
{"is_sidechain": false}

>  <source_group>  (18)
CHRFAM7A at A face

>  <source_system>  (18)
CHRNA7_encenicline

>  <source_run>  (18)
hybrid_A_face_seed1103_ex32

>  <source_seed>  (18)
1103

>  <vina_pose_rank>  (18)
18

>  <vina_affinity_kcal_mol>  (18)
-5.734

>  <vina_rmsd_to_crystal_angstrom>  (18)
8.2550000000000008

$$$$
CHRNA7_encenicline__hybrid_A_face_seed1103_ex32__pose19
     RDKit          3D

 38 41  0  0  0  0  0  0  0  0999 V2000
  148.1530  135.2470   92.6180 O   0  0  0  0  0  0  0  0  0  0  0  0
  148.1370  136.3460   92.1760 C   0  0  0  0  0  0  0  0  0  0  0  0
  149.3850  137.0400   91.9270 N   0  0  0  0  0  0  0  0  0  0  0  0
  150.6670  136.3670   92.2340 C   0  0  1  0  0  0  0  0  0  0  0  0
  151.1380  135.5530   91.0120 C   0  0  0  0  0  0  0  0  0  0  0  0
  152.3990  135.9720   90.5800 N   0  0  0  0  0  0  0  0  0  0  0  0
  153.3190  135.8500   91.5990 C   0  0  0  0  0  0  0  0  0  0  0  0
  152.9310  136.6760   92.7890 C   0  0  0  0  0  0  0  0  0  0  0  0
  151.6920  137.3590   92.5430 C   0  0  0  0  0  0  0  0  0  0  0  0
  151.8650  138.2200   91.3760 C   0  0  0  0  0  0  0  0  0  0  0  0
  152.3360  137.3250   90.1670 C   0  0  0  0  0  0  0  0  0  0  0  0
  146.7950  137.0190   91.8680 C   0  0  0  0  0  0  0  0  0  0  0  0
  146.5720  138.3530   91.8160 C   0  0  0  0  0  0  0  0  0  0  0  0
  145.2560  138.8370   91.5120 C   0  0  0  0  0  0  0  0  0  0  0  0
  144.8680  140.1480   91.4210 C   0  0  0  0  0  0  0  0  0  0  0  0
  143.5440  140.4650   91.1160 C   0  0  0  0  0  0  0  0  0  0  0  0
  142.6070  139.4400   90.9030 C   0  0  0  0  0  0  0  0  0  0  0  0
  142.9960  138.1000   90.9940 C   0  0  0  0  0  0  0  0  0  0  0  0
  141.8040  136.8030   90.7200 Cl  0  0  0  0  0  0  0  0  0  0  0  0
  144.3000  137.7850   91.2940 C   0  0  0  0  0  0  0  0  0  0  0  0
  145.2670  136.2620   91.5170 S   0  0  0  0  0  0  0  0  0  0  0  0
  149.3800  137.9520   91.5570 H   0  0  0  0  0  0  0  0  0  0  0  0
  150.5120  135.7029   93.0971 H   0  0  0  0  0  0  0  0  0  0  0  0
  151.1885  134.4893   91.2876 H   0  0  0  0  0  0  0  0  0  0  0  0
  150.4204  135.7084   90.1930 H   0  0  0  0  0  0  0  0  0  0  0  0
  153.3804  134.7941   91.9011 H   0  0  0  0  0  0  0  0  0  0  0  0
  154.2919  136.2084   91.2315 H   0  0  0  0  0  0  0  0  0  0  0  0
  152.8151  136.0191   93.6637 H   0  0  0  0  0  0  0  0  0  0  0  0
  153.7177  137.4215   92.9771 H   0  0  0  0  0  0  0  0  0  0  0  0
  151.3998  137.9517   93.4224 H   0  0  0  0  0  0  0  0  0  0  0  0
  150.9105  138.7074   91.1284 H   0  0  0  0  0  0  0  0  0  0  0  0
  152.6137  138.9979   91.5863 H   0  0  0  0  0  0  0  0  0  0  0  0
  151.6202  137.4225   89.3375 H   0  0  0  0  0  0  0  0  0  0  0  0
  153.3309  137.6537   89.8322 H   0  0  0  0  0  0  0  0  0  0  0  0
  147.3930  139.0602   92.0053 H   0  0  0  0  0  0  0  0  0  0  0  0
  145.6009  140.9510   91.5885 H   0  0  0  0  0  0  0  0  0  0  0  0
  143.2336  141.5177   91.0423 H   0  0  0  0  0  0  0  0  0  0  0  0
  141.5635  139.6926   90.6638 H   0  0  0  0  0  0  0  0  0  0  0  0
  1  2  2  0
  2  3  1  0
  3  4  1  0
  4  5  1  0
  5  6  1  0
  6  7  1  0
  7  8  1  0
  8  9  1  0
  9 10  1  0
 10 11  1  0
  2 12  1  0
 12 13  2  0
 13 14  1  0
 14 15  2  0
 15 16  1  0
 16 17  2  0
 17 18  1  0
 18 19  1  0
 18 20  2  0
 20 21  1  0
  9  4  1  0
 21 12  1  0
 11  6  1  0
 20 14  1  0
  3 22  1  0
  4 23  1  1
  5 24  1  0
  5 25  1  0
  7 26  1  0
  7 27  1  0
  8 28  1  0
  8 29  1  0
  9 30  1  0
 10 31  1  0
 10 32  1  0
 11 33  1  0
 11 34  1  0
 13 35  1  0
 15 36  1  0
 16 37  1  0
 17 38  1  0
M  END
>  <meeko>  (19)
{"is_sidechain": false}

>  <source_group>  (19)
CHRFAM7A at A face

>  <source_system>  (19)
CHRNA7_encenicline

>  <source_run>  (19)
hybrid_A_face_seed1103_ex32

>  <source_seed>  (19)
1103

>  <vina_pose_rank>  (19)
19

>  <vina_affinity_kcal_mol>  (19)
-5.6920000000000002

>  <vina_rmsd_to_crystal_angstrom>  (19)
9.4428999999999998

$$$$
CHRNA7_encenicline__hybrid_A_face_seed1103_ex32__pose20
     RDKit          3D

 38 41  0  0  0  0  0  0  0  0999 V2000
  149.2210  135.5930   92.5420 O   0  0  0  0  0  0  0  0  0  0  0  0
  148.8120  136.4660   91.8530 C   0  0  0  0  0  0  0  0  0  0  0  0
  149.7430  137.3690   91.2060 N   0  0  0  0  0  0  0  0  0  0  0  0
  151.1970  137.1910   91.4180 C   0  0  1  0  0  0  0  0  0  0  0  0
  151.9410  137.2950   90.0710 C   0  0  0  0  0  0  0  0  0  0  0  0
  152.8900  138.3200   90.0950 N   0  0  0  0  0  0  0  0  0  0  0  0
  153.7990  138.1090   91.1090 C   0  0  0  0  0  0  0  0  0  0  0  0
  153.1240  138.0610   92.4480 C   0  0  0  0  0  0  0  0  0  0  0  0
  151.7060  138.2360   92.3010 C   0  0  0  0  0  0  0  0  0  0  0  0
  151.4640  139.5300   91.6680 C   0  0  0  0  0  0  0  0  0  0  0  0
  152.2430  139.5630   90.2980 C   0  0  0  0  0  0  0  0  0  0  0  0
  147.3010  136.6270   91.6520 C   0  0  0  0  0  0  0  0  0  0  0  0
  146.4070  135.6180   91.5330 C   0  0  0  0  0  0  0  0  0  0  0  0
  145.0170  135.9260   91.3490 C   0  0  0  0  0  0  0  0  0  0  0  0
  143.9920  135.0270   91.2150 C   0  0  0  0  0  0  0  0  0  0  0  0
  142.6840  135.4800   91.0410 C   0  0  0  0  0  0  0  0  0  0  0  0
  142.4170  136.8590   91.0030 C   0  0  0  0  0  0  0  0  0  0  0  0
  143.4590  137.7820   91.1400 C   0  0  0  0  0  0  0  0  0  0  0  0
  143.1140  139.5310   91.0930 Cl  0  0  0  0  0  0  0  0  0  0  0  0
  144.7480  137.3380   91.3120 C   0  0  0  0  0  0  0  0  0  0  0  0
  146.3840  138.1010   91.5280 S   0  0  0  0  0  0  0  0  0  0  0  0
  149.4110  138.0950   90.6300 H   0  0  0  0  0  0  0  0  0  0  0  0
  151.3627  136.2014   91.8689 H   0  0  0  0  0  0  0  0  0  0  0  0
  152.4488  136.3408   89.8671 H   0  0  0  0  0  0  0  0  0  0  0  0
  151.2060  137.5196   89.2840 H   0  0  0  0  0  0  0  0  0  0  0  0
  154.3151  137.1535   90.9339 H   0  0  0  0  0  0  0  0  0  0  0  0
  154.5146  138.9444   91.1118 H   0  0  0  0  0  0  0  0  0  0  0  0
  153.3220  137.0868   92.9189 H   0  0  0  0  0  0  0  0  0  0  0  0
  153.5202  138.8723   93.0763 H   0  0  0  0  0  0  0  0  0  0  0  0
  151.2104  138.1855   93.2818 H   0  0  0  0  0  0  0  0  0  0  0  0
  150.3868  139.6600   91.4868 H   0  0  0  0  0  0  0  0  0  0  0  0
  151.8118  140.3432   92.3219 H   0  0  0  0  0  0  0  0  0  0  0  0
  151.5341  139.7462   89.4770 H   0  0  0  0  0  0  0  0  0  0  0  0
  152.9923  140.3680   90.3206 H   0  0  0  0  0  0  0  0  0  0  0  0
  146.7424  134.5713   91.5769 H   0  0  0  0  0  0  0  0  0  0  0  0
  144.2004  133.9473   91.2446 H   0  0  0  0  0  0  0  0  0  0  0  0
  141.8616  134.7575   90.9335 H   0  0  0  0  0  0  0  0  0  0  0  0
  141.3850  137.2139   90.8650 H   0  0  0  0  0  0  0  0  0  0  0  0
  1  2  2  0
  2  3  1  0
  3  4  1  0
  4  5  1  0
  5  6  1  0
  6  7  1  0
  7  8  1  0
  8  9  1  0
  9 10  1  0
 10 11  1  0
  2 12  1  0
 12 13  2  0
 13 14  1  0
 14 15  2  0
 15 16  1  0
 16 17  2  0
 17 18  1  0
 18 19  1  0
 18 20  2  0
 20 21  1  0
  9  4  1  0
 21 12  1  0
 11  6  1  0
 20 14  1  0
  3 22  1  0
  4 23  1  1
  5 24  1  0
  5 25  1  0
  7 26  1  0
  7 27  1  0
  8 28  1  0
  8 29  1  0
  9 30  1  0
 10 31  1  0
 10 32  1  0
 11 33  1  0
 11 34  1  0
 13 35  1  0
 15 36  1  0
 16 37  1  0
 17 38  1  0
M  END
>  <meeko>  (20)
{"is_sidechain": false}

>  <source_group>  (20)
CHRFAM7A at A face

>  <source_system>  (20)
CHRNA7_encenicline

>  <source_run>  (20)
hybrid_A_face_seed1103_ex32

>  <source_seed>  (20)
1103

>  <vina_pose_rank>  (20)
20

>  <vina_affinity_kcal_mol>  (20)
-5.6449999999999996

>  <vina_rmsd_to_crystal_angstrom>  (20)
9.0997000000000003

$$$$
