CHRNA7_encenicline__hybrid_B_face_seed4409_ex32__pose01
     RDKit          3D

 38 41  0  0  0  0  0  0  0  0999 V2000
  143.5890  139.3520   95.6970 O   0  0  0  0  0  0  0  0  0  0  0  0
  142.6440  139.7260   95.0900 C   0  0  0  0  0  0  0  0  0  0  0  0
  142.5600  139.4800   93.6640 N   0  0  0  0  0  0  0  0  0  0  0  0
  143.6630  138.7630   92.9830 C   0  0  1  0  0  0  0  0  0  0  0  0
  143.2610  138.4400   91.5300 C   0  0  0  0  0  0  0  0  0  0  0  0
  144.1580  139.0060   90.6190 N   0  0  0  0  0  0  0  0  0  0  0  0
  145.4350  138.5480   90.8570 C   0  0  0  0  0  0  0  0  0  0  0  0
  145.8910  138.8940   92.2440 C   0  0  0  0  0  0  0  0  0  0  0  0
  144.8590  139.6000   92.9500 C   0  0  0  0  0  0  0  0  0  0  0  0
  144.5460  140.8200   92.2100 C   0  0  0  0  0  0  0  0  0  0  0  0
  144.1360  140.4170   90.7430 C   0  0  0  0  0  0  0  0  0  0  0  0
  141.5180  140.4660   95.8210 C   0  0  0  0  0  0  0  0  0  0  0  0
  140.2330  140.0530   95.9170 C   0  0  0  0  0  0  0  0  0  0  0  0
  139.2860  140.8550   96.6390 C   0  0  0  0  0  0  0  0  0  0  0  0
  137.9580  140.5790   96.8290 C   0  0  0  0  0  0  0  0  0  0  0  0
  137.1590  141.4600   97.5570 C   0  0  0  0  0  0  0  0  0  0  0  0
  137.7160  142.6320   98.0960 C   0  0  0  0  0  0  0  0  0  0  0  0
  139.0710  142.9190   97.9070 C   0  0  0  0  0  0  0  0  0  0  0  0
  139.7730  144.4070   98.5960 Cl  0  0  0  0  0  0  0  0  0  0  0  0
  139.8610  142.0530   97.1900 C   0  0  0  0  0  0  0  0  0  0  0  0
  141.6050  141.9750   96.6830 S   0  0  0  0  0  0  0  0  0  0  0  0
  141.7770  139.7860   93.1520 H   0  0  0  0  0  0  0  0  0  0  0  0
  143.8670  137.8345   93.5364 H   0  0  0  0  0  0  0  0  0  0  0  0
  143.2528  137.3484   91.3943 H   0  0  0  0  0  0  0  0  0  0  0  0
  142.2624  138.8618   91.3431 H   0  0  0  0  0  0  0  0  0  0  0  0
  145.4512  137.4547   90.7372 H   0  0  0  0  0  0  0  0  0  0  0  0
  146.1150  139.0295   90.1388 H   0  0  0  0  0  0  0  0  0  0  0  0
  146.1334  137.9686   92.7870 H   0  0  0  0  0  0  0  0  0  0  0  0
  146.7807  139.5374   92.1764 H   0  0  0  0  0  0  0  0  0  0  0  0
  145.1884  139.8406   93.9716 H   0  0  0  0  0  0  0  0  0  0  0  0
  143.7128  141.3474   92.6975 H   0  0  0  0  0  0  0  0  0  0  0  0
  145.4212  141.4861   92.1896 H   0  0  0  0  0  0  0  0  0  0  0  0
  143.1227  140.7884   90.5300 H   0  0  0  0  0  0  0  0  0  0  0  0
  144.8456  140.8597   90.0285 H   0  0  0  0  0  0  0  0  0  0  0  0
  139.9166  139.1107   95.4458 H   0  0  0  0  0  0  0  0  0  0  0  0
  137.5214  139.6617   96.4071 H   0  0  0  0  0  0  0  0  0  0  0  0
  136.0926  141.2375   97.7093 H   0  0  0  0  0  0  0  0  0  0  0  0
  137.0835  143.3262   98.6688 H   0  0  0  0  0  0  0  0  0  0  0  0
  1  2  2  0
  2  3  1  0
  3  4  1  0
  4  5  1  0
  5  6  1  0
  6  7  1  0
  7  8  1  0
  8  9  1  0
  9 10  1  0
 10 11  1  0
  2 12  1  0
 12 13  2  0
 13 14  1  0
 14 15  2  0
 15 16  1  0
 16 17  2  0
 17 18  1  0
 18 19  1  0
 18 20  2  0
 20 21  1  0
  9  4  1  0
 21 12  1  0
 11  6  1  0
 20 14  1  0
  3 22  1  0
  4 23  1  1
  5 24  1  0
  5 25  1  0
  7 26  1  0
  7 27  1  0
  8 28  1  0
  8 29  1  0
  9 30  1  0
 10 31  1  0
 10 32  1  0
 11 33  1  0
 11 34  1  0
 13 35  1  0
 15 36  1  0
 16 37  1  0
 17 38  1  0
M  END
>  <meeko>  (1)
{"is_sidechain": false}

>  <source_group>  (1)
CHRFAM7A at B face

>  <source_system>  (1)
CHRNA7_encenicline

>  <source_run>  (1)
hybrid_B_face_seed4409_ex32

>  <source_seed>  (1)
4409

>  <vina_pose_rank>  (1)
1

>  <vina_affinity_kcal_mol>  (1)
-6.9269999999999996

>  <vina_rmsd_to_crystal_angstrom>  (1)
8.3847000000000005

$$$$
CHRNA7_encenicline__hybrid_B_face_seed4409_ex32__pose02
     RDKit          3D

 38 41  0  0  0  0  0  0  0  0999 V2000
  143.7060  141.4400   95.4980 O   0  0  0  0  0  0  0  0  0  0  0  0
  142.6950  141.0370   95.0320 C   0  0  0  0  0  0  0  0  0  0  0  0
  142.7120  140.3490   93.7560 N   0  0  0  0  0  0  0  0  0  0  0  0
  143.9990  140.1610   93.0480 C   0  0  1  0  0  0  0  0  0  0  0  0
  144.6410  138.8250   93.4700 C   0  0  0  0  0  0  0  0  0  0  0  0
  144.8470  137.9920   92.3680 N   0  0  0  0  0  0  0  0  0  0  0  0
  145.6500  138.6160   91.4380 C   0  0  0  0  0  0  0  0  0  0  0  0
  145.0340  139.8940   90.9530 C   0  0  0  0  0  0  0  0  0  0  0  0
  143.7750  140.1230   91.6050 C   0  0  0  0  0  0  0  0  0  0  0  0
  142.8900  139.0000   91.3070 C   0  0  0  0  0  0  0  0  0  0  0  0
  143.6020  137.6730   91.7720 C   0  0  0  0  0  0  0  0  0  0  0  0
  141.3770  141.2460   95.7870 C   0  0  0  0  0  0  0  0  0  0  0  0
  141.0760  142.3030   96.5760 C   0  0  0  0  0  0  0  0  0  0  0  0
  139.7940  142.3610   97.2190 C   0  0  0  0  0  0  0  0  0  0  0  0
  139.3370  143.3570   98.0420 C   0  0  0  0  0  0  0  0  0  0  0  0
  138.0600  143.2720   98.5980 C   0  0  0  0  0  0  0  0  0  0  0  0
  137.2430  142.1640   98.3150 C   0  0  0  0  0  0  0  0  0  0  0  0
  137.7030  141.1450   97.4750 C   0  0  0  0  0  0  0  0  0  0  0  0
  136.6600  139.7440   97.1180 Cl  0  0  0  0  0  0  0  0  0  0  0  0
  138.9600  141.2260   96.9260 C   0  0  0  0  0  0  0  0  0  0  0  0
  139.9810  140.2070   95.8200 S   0  0  0  0  0  0  0  0  0  0  0  0
  141.8760  140.0100   93.3630 H   0  0  0  0  0  0  0  0  0  0  0  0
  144.6623  140.9996   93.3063 H   0  0  0  0  0  0  0  0  0  0  0  0
  145.6088  139.0285   93.9515 H   0  0  0  0  0  0  0  0  0  0  0  0
  143.9593  138.3166   94.1677 H   0  0  0  0  0  0  0  0  0  0  0  0
  146.6235  138.8401   91.8986 H   0  0  0  0  0  0  0  0  0  0  0  0
  145.7713  137.9417   90.5774 H   0  0  0  0  0  0  0  0  0  0  0  0
  145.7136  140.7303   91.1736 H   0  0  0  0  0  0  0  0  0  0  0  0
  144.8654  139.8193   89.8686 H   0  0  0  0  0  0  0  0  0  0  0  0
  143.3308  141.0682   91.2595 H   0  0  0  0  0  0  0  0  0  0  0  0
  141.9397  139.1215   91.8476 H   0  0  0  0  0  0  0  0  0  0  0  0
  142.6789  138.9593   90.2282 H   0  0  0  0  0  0  0  0  0  0  0  0
  142.9670  137.1528   92.5042 H   0  0  0  0  0  0  0  0  0  0  0  0
  143.7671  137.0200   90.9023 H   0  0  0  0  0  0  0  0  0  0  0  0
  141.8075  143.1111   96.7235 H   0  0  0  0  0  0  0  0  0  0  0  0
  139.9770  144.2236   98.2643 H   0  0  0  0  0  0  0  0  0  0  0  0
  137.6928  144.0720   99.2577 H   0  0  0  0  0  0  0  0  0  0  0  0
  136.2375  142.0981   98.7561 H   0  0  0  0  0  0  0  0  0  0  0  0
  1  2  2  0
  2  3  1  0
  3  4  1  0
  4  5  1  0
  5  6  1  0
  6  7  1  0
  7  8  1  0
  8  9  1  0
  9 10  1  0
 10 11  1  0
  2 12  1  0
 12 13  2  0
 13 14  1  0
 14 15  2  0
 15 16  1  0
 16 17  2  0
 17 18  1  0
 18 19  1  0
 18 20  2  0
 20 21  1  0
  9  4  1  0
 21 12  1  0
 11  6  1  0
 20 14  1  0
  3 22  1  0
  4 23  1  6
  5 24  1  0
  5 25  1  0
  7 26  1  0
  7 27  1  0
  8 28  1  0
  8 29  1  0
  9 30  1  0
 10 31  1  0
 10 32  1  0
 11 33  1  0
 11 34  1  0
 13 35  1  0
 15 36  1  0
 16 37  1  0
 17 38  1  0
M  END
>  <meeko>  (2)
{"is_sidechain": false}

>  <source_group>  (2)
CHRFAM7A at B face

>  <source_system>  (2)
CHRNA7_encenicline

>  <source_run>  (2)
hybrid_B_face_seed4409_ex32

>  <source_seed>  (2)
4409

>  <vina_pose_rank>  (2)
2

>  <vina_affinity_kcal_mol>  (2)
-6.5860000000000003

>  <vina_rmsd_to_crystal_angstrom>  (2)
8.6567000000000007

$$$$
CHRNA7_encenicline__hybrid_B_face_seed4409_ex32__pose03
     RDKit          3D

 38 41  0  0  0  0  0  0  0  0999 V2000
  146.4920  144.6190   93.6540 O   0  0  0  0  0  0  0  0  0  0  0  0
  146.6110  143.6100   94.2610 C   0  0  0  0  0  0  0  0  0  0  0  0
  147.8960  143.2610   94.8340 N   0  0  0  0  0  0  0  0  0  0  0  0
  149.0480  144.1720   94.6490 C   0  0  1  0  0  0  0  0  0  0  0  0
  149.4550  144.7860   96.0030 C   0  0  0  0  0  0  0  0  0  0  0  0
  150.7850  144.4890   96.3140 N   0  0  0  0  0  0  0  0  0  0  0  0
  151.6240  144.9540   95.3260 C   0  0  0  0  0  0  0  0  0  0  0  0
  151.3010  144.3360   93.9980 C   0  0  0  0  0  0  0  0  0  0  0  0
  150.1910  143.4330   94.1210 C   0  0  0  0  0  0  0  0  0  0  0  0
  150.5480  142.3920   95.0810 C   0  0  0  0  0  0  0  0  0  0  0  0
  150.9420  143.0870   96.4400 C   0  0  0  0  0  0  0  0  0  0  0  0
  145.4010  142.6850   94.4380 C   0  0  0  0  0  0  0  0  0  0  0  0
  144.3460  142.9080   95.2550 C   0  0  0  0  0  0  0  0  0  0  0  0
  143.2820  141.9470   95.3120 C   0  0  0  0  0  0  0  0  0  0  0  0
  142.1510  142.0250   96.0810 C   0  0  0  0  0  0  0  0  0  0  0  0
  141.2000  141.0060   96.0310 C   0  0  0  0  0  0  0  0  0  0  0  0
  141.4030  139.8970   95.1910 C   0  0  0  0  0  0  0  0  0  0  0  0
  142.5550  139.8110   94.4030 C   0  0  0  0  0  0  0  0  0  0  0  0
  142.8050  138.4040   93.3380 Cl  0  0  0  0  0  0  0  0  0  0  0  0
  143.4930  140.8150   94.4510 C   0  0  0  0  0  0  0  0  0  0  0  0
  145.0900  141.1610   93.6560 S   0  0  0  0  0  0  0  0  0  0  0  0
  148.0020  142.4240   95.3430 H   0  0  0  0  0  0  0  0  0  0  0  0
  148.7535  144.9648   93.9456 H   0  0  0  0  0  0  0  0  0  0  0  0
  149.3337  145.8781   95.9525 H   0  0  0  0  0  0  0  0  0  0  0  0
  148.8109  144.3597   96.7862 H   0  0  0  0  0  0  0  0  0  0  0  0
  151.5151  146.0459   95.2486 H   0  0  0  0  0  0  0  0  0  0  0  0
  152.6562  144.6825   95.5923 H   0  0  0  0  0  0  0  0  0  0  0  0
  151.0440  145.1304   93.2818 H   0  0  0  0  0  0  0  0  0  0  0  0
  152.1784  143.7755   93.6432 H   0  0  0  0  0  0  0  0  0  0  0  0
  149.9456  142.9911   93.1440 H   0  0  0  0  0  0  0  0  0  0  0  0
  149.6897  141.7228   95.2405 H   0  0  0  0  0  0  0  0  0  0  0  0
  151.3919  141.7981   94.7001 H   0  0  0  0  0  0  0  0  0  0  0  0
  150.2904  142.7156   97.2446 H   0  0  0  0  0  0  0  0  0  0  0  0
  151.9898  142.8547   96.6813 H   0  0  0  0  0  0  0  0  0  0  0  0
  144.3042  143.8187   95.8706 H   0  0  0  0  0  0  0  0  0  0  0  0
  141.9927  142.8924   96.7387 H   0  0  0  0  0  0  0  0  0  0  0  0
  140.2918  141.0700   96.6483 H   0  0  0  0  0  0  0  0  0  0  0  0
  140.6525  139.0937   95.1535 H   0  0  0  0  0  0  0  0  0  0  0  0
  1  2  2  0
  2  3  1  0
  3  4  1  0
  4  5  1  0
  5  6  1  0
  6  7  1  0
  7  8  1  0
  8  9  1  0
  9 10  1  0
 10 11  1  0
  2 12  1  0
 12 13  2  0
 13 14  1  0
 14 15  2  0
 15 16  1  0
 16 17  2  0
 17 18  1  0
 18 19  1  0
 18 20  2  0
 20 21  1  0
  9  4  1  0
 21 12  1  0
 11  6  1  0
 20 14  1  0
  3 22  1  0
  4 23  1  6
  5 24  1  0
  5 25  1  0
  7 26  1  0
  7 27  1  0
  8 28  1  0
  8 29  1  0
  9 30  1  0
 10 31  1  0
 10 32  1  0
 11 33  1  0
 11 34  1  0
 13 35  1  0
 15 36  1  0
 16 37  1  0
 17 38  1  0
M  END
>  <meeko>  (3)
{"is_sidechain": false}

>  <source_group>  (3)
CHRFAM7A at B face

>  <source_system>  (3)
CHRNA7_encenicline

>  <source_run>  (3)
hybrid_B_face_seed4409_ex32

>  <source_seed>  (3)
4409

>  <vina_pose_rank>  (3)
3

>  <vina_affinity_kcal_mol>  (3)
-6.0469999999999997

>  <vina_rmsd_to_crystal_angstrom>  (3)
9.9244000000000003

$$$$
CHRNA7_encenicline__hybrid_B_face_seed4409_ex32__pose04
     RDKit          3D

 38 41  0  0  0  0  0  0  0  0999 V2000
  140.9790  141.2090   89.1240 O   0  0  0  0  0  0  0  0  0  0  0  0
  141.5190  140.2120   88.7830 C   0  0  0  0  0  0  0  0  0  0  0  0
  142.5880  139.6590   89.5930 N   0  0  0  0  0  0  0  0  0  0  0  0
  142.9930  140.3520   90.8370 C   0  0  1  0  0  0  0  0  0  0  0  0
  142.2610  139.7350   92.0450 C   0  0  0  0  0  0  0  0  0  0  0  0
  143.1660  139.2460   92.9890 N   0  0  0  0  0  0  0  0  0  0  0  0
  144.0010  140.2540   93.4210 C   0  0  0  0  0  0  0  0  0  0  0  0
  144.7810  140.8440   92.2830 C   0  0  0  0  0  0  0  0  0  0  0  0
  144.4300  140.2010   91.0480 C   0  0  0  0  0  0  0  0  0  0  0  0
  144.7290  138.7760   91.1690 C   0  0  0  0  0  0  0  0  0  0  0  0
  143.9430  138.2100   92.4130 C   0  0  0  0  0  0  0  0  0  0  0  0
  141.0790  139.5150   87.4910 C   0  0  0  0  0  0  0  0  0  0  0  0
  141.7850  139.4660   86.3380 C   0  0  0  0  0  0  0  0  0  0  0  0
  141.2420  138.7700   85.2070 C   0  0  0  0  0  0  0  0  0  0  0  0
  141.8280  138.6280   83.9770 C   0  0  0  0  0  0  0  0  0  0  0  0
  141.1720  137.9210   82.9680 C   0  0  0  0  0  0  0  0  0  0  0  0
  139.9100  137.3550   83.2140 C   0  0  0  0  0  0  0  0  0  0  0  0
  139.3060  137.4960   84.4680 C   0  0  0  0  0  0  0  0  0  0  0  0
  137.7050  136.7740   84.7750 Cl  0  0  0  0  0  0  0  0  0  0  0  0
  139.9500  138.1920   85.4630 C   0  0  0  0  0  0  0  0  0  0  0  0
  139.6050  138.6390   87.1910 S   0  0  0  0  0  0  0  0  0  0  0  0
  143.0400  138.8290   89.3180 H   0  0  0  0  0  0  0  0  0  0  0  0
  142.7348  141.4169   90.7406 H   0  0  0  0  0  0  0  0  0  0  0  0
  141.6331  140.5058   92.5158 H   0  0  0  0  0  0  0  0  0  0  0  0
  141.6446  138.8971   91.6874 H   0  0  0  0  0  0  0  0  0  0  0  0
  143.3956  141.0448   93.8880 H   0  0  0  0  0  0  0  0  0  0  0  0
  144.7121  139.8284   94.1443 H   0  0  0  0  0  0  0  0  0  0  0  0
  144.5568  141.9183   92.2086 H   0  0  0  0  0  0  0  0  0  0  0  0
  145.8544  140.6936   92.4707 H   0  0  0  0  0  0  0  0  0  0  0  0
  144.9902  140.6451   90.2120 H   0  0  0  0  0  0  0  0  0  0  0  0
  144.4104  138.2502   90.2569 H   0  0  0  0  0  0  0  0  0  0  0  0
  145.8104  138.6254   91.3030 H   0  0  0  0  0  0  0  0  0  0  0  0
  143.2823  137.3924   92.0889 H   0  0  0  0  0  0  0  0  0  0  0  0
  144.6577  137.8290   93.1574 H   0  0  0  0  0  0  0  0  0  0  0  0
  142.7674  139.9558   86.2682 H   0  0  0  0  0  0  0  0  0  0  0  0
  142.8161  139.0714   83.7844 H   0  0  0  0  0  0  0  0  0  0  0  0
  141.6430  137.8071   81.9805 H   0  0  0  0  0  0  0  0  0  0  0  0
  139.3946  136.7986   82.4173 H   0  0  0  0  0  0  0  0  0  0  0  0
  1  2  2  0
  2  3  1  0
  3  4  1  0
  4  5  1  0
  5  6  1  0
  6  7  1  0
  7  8  1  0
  8  9  1  0
  9 10  1  0
 10 11  1  0
  2 12  1  0
 12 13  2  0
 13 14  1  0
 14 15  2  0
 15 16  1  0
 16 17  2  0
 17 18  1  0
 18 19  1  0
 18 20  2  0
 20 21  1  0
  9  4  1  0
 21 12  1  0
 11  6  1  0
 20 14  1  0
  3 22  1  0
  4 23  1  6
  5 24  1  0
  5 25  1  0
  7 26  1  0
  7 27  1  0
  8 28  1  0
  8 29  1  0
  9 30  1  0
 10 31  1  0
 10 32  1  0
 11 33  1  0
 11 34  1  0
 13 35  1  0
 15 36  1  0
 16 37  1  0
 17 38  1  0
M  END
>  <meeko>  (4)
{"is_sidechain": false}

>  <source_group>  (4)
CHRFAM7A at B face

>  <source_system>  (4)
CHRNA7_encenicline

>  <source_run>  (4)
hybrid_B_face_seed4409_ex32

>  <source_seed>  (4)
4409

>  <vina_pose_rank>  (4)
4

>  <vina_affinity_kcal_mol>  (4)
-5.9189999999999996

>  <vina_rmsd_to_crystal_angstrom>  (4)
7.3045999999999998

$$$$
CHRNA7_encenicline__hybrid_B_face_seed4409_ex32__pose05
     RDKit          3D

 38 41  0  0  0  0  0  0  0  0999 V2000
  146.8830  144.2170   93.4900 O   0  0  0  0  0  0  0  0  0  0  0  0
  146.3850  143.9280   94.5250 C   0  0  0  0  0  0  0  0  0  0  0  0
  146.8090  144.5940   95.7410 N   0  0  0  0  0  0  0  0  0  0  0  0
  147.8660  145.6280   95.6730 C   0  0  1  0  0  0  0  0  0  0  0  0
  147.2270  147.0300   95.6060 C   0  0  0  0  0  0  0  0  0  0  0  0
  147.6490  147.8300   96.6700 N   0  0  0  0  0  0  0  0  0  0  0  0
  149.0210  147.9490   96.6660 C   0  0  0  0  0  0  0  0  0  0  0  0
  149.6870  146.6100   96.7920 C   0  0  0  0  0  0  0  0  0  0  0  0
  148.7030  145.5660   96.8680 C   0  0  0  0  0  0  0  0  0  0  0  0
  147.8590  145.8130   98.0340 C   0  0  0  0  0  0  0  0  0  0  0  0
  147.2330  147.2530   97.8950 C   0  0  0  0  0  0  0  0  0  0  0  0
  145.2920  142.8530   94.5650 C   0  0  0  0  0  0  0  0  0  0  0  0
  144.1780  142.8850   95.3330 C   0  0  0  0  0  0  0  0  0  0  0  0
  143.2400  141.8020   95.2610 C   0  0  0  0  0  0  0  0  0  0  0  0
  142.0720  141.6850   95.9660 C   0  0  0  0  0  0  0  0  0  0  0  0
  141.2580  140.5650   95.7900 C   0  0  0  0  0  0  0  0  0  0  0  0
  141.6380  139.5560   94.8880 C   0  0  0  0  0  0  0  0  0  0  0  0
  142.8290  139.6700   94.1640 C   0  0  0  0  0  0  0  0  0  0  0  0
  143.3050  138.3880   93.0200 Cl  0  0  0  0  0  0  0  0  0  0  0  0
  143.6320  140.7720   94.3360 C   0  0  0  0  0  0  0  0  0  0  0  0
  145.2120  141.3670   93.6620 S   0  0  0  0  0  0  0  0  0  0  0  0
  146.3970  144.3610   96.6040 H   0  0  0  0  0  0  0  0  0  0  0  0
  148.4736  145.4441   94.7747 H   0  0  0  0  0  0  0  0  0  0  0  0
  147.5155  147.5107   94.6596 H   0  0  0  0  0  0  0  0  0  0  0  0
  146.1345  146.9175   95.6674 H   0  0  0  0  0  0  0  0  0  0  0  0
  149.3368  148.4185   95.7227 H   0  0  0  0  0  0  0  0  0  0  0  0
  149.3176  148.5657   97.5273 H   0  0  0  0  0  0  0  0  0  0  0  0
  150.3284  146.4403   95.9146 H   0  0  0  0  0  0  0  0  0  0  0  0
  150.2919  146.5976   97.7107 H   0  0  0  0  0  0  0  0  0  0  0  0
  149.1913  144.5832   96.9443 H   0  0  0  0  0  0  0  0  0  0  0  0
  147.0570  145.0614   98.0787 H   0  0  0  0  0  0  0  0  0  0  0  0
  148.4562  145.7464   98.9554 H   0  0  0  0  0  0  0  0  0  0  0  0
  146.1356  147.1795   97.9122 H   0  0  0  0  0  0  0  0  0  0  0  0
  147.5703  147.8829   98.7314 H   0  0  0  0  0  0  0  0  0  0  0  0
  143.9934  143.7345   96.0069 H   0  0  0  0  0  0  0  0  0  0  0  0
  141.7749  142.4746   96.6719 H   0  0  0  0  0  0  0  0  0  0  0  0
  140.3198  140.4719   96.3567 H   0  0  0  0  0  0  0  0  0  0  0  0
  140.9960  138.6733   94.7511 H   0  0  0  0  0  0  0  0  0  0  0  0
  1  2  2  0
  2  3  1  0
  3  4  1  0
  4  5  1  0
  5  6  1  0
  6  7  1  0
  7  8  1  0
  8  9  1  0
  9 10  1  0
 10 11  1  0
  2 12  1  0
 12 13  2  0
 13 14  1  0
 14 15  2  0
 15 16  1  0
 16 17  2  0
 17 18  1  0
 18 19  1  0
 18 20  2  0
 20 21  1  0
  9  4  1  0
 21 12  1  0
 11  6  1  0
 20 14  1  0
  3 22  1  0
  4 23  1  6
  5 24  1  0
  5 25  1  0
  7 26  1  0
  7 27  1  0
  8 28  1  0
  8 29  1  0
  9 30  1  0
 10 31  1  0
 10 32  1  0
 11 33  1  0
 11 34  1  0
 13 35  1  0
 15 36  1  0
 16 37  1  0
 17 38  1  0
M  END
>  <meeko>  (5)
{"is_sidechain": false}

>  <source_group>  (5)
CHRFAM7A at B face

>  <source_system>  (5)
CHRNA7_encenicline

>  <source_run>  (5)
hybrid_B_face_seed4409_ex32

>  <source_seed>  (5)
4409

>  <vina_pose_rank>  (5)
5

>  <vina_affinity_kcal_mol>  (5)
-5.8979999999999997

>  <vina_rmsd_to_crystal_angstrom>  (5)
9.8596000000000004

$$$$
CHRNA7_encenicline__hybrid_B_face_seed4409_ex32__pose06
     RDKit          3D

 38 41  0  0  0  0  0  0  0  0999 V2000
  146.0820  144.8390   96.0390 O   0  0  0  0  0  0  0  0  0  0  0  0
  146.1920  144.2190   95.0360 C   0  0  0  0  0  0  0  0  0  0  0  0
  147.1780  144.6140   94.0490 N   0  0  0  0  0  0  0  0  0  0  0  0
  148.0360  145.7930   94.3080 C   0  0  1  0  0  0  0  0  0  0  0  0
  149.3920  145.3410   94.8830 C   0  0  0  0  0  0  0  0  0  0  0  0
  150.4510  145.7680   94.0780 N   0  0  0  0  0  0  0  0  0  0  0  0
  150.4370  147.1400   93.9550 C   0  0  0  0  0  0  0  0  0  0  0  0
  149.1550  147.6210   93.3420 C   0  0  0  0  0  0  0  0  0  0  0  0
  148.2850  146.5130   93.0630 C   0  0  0  0  0  0  0  0  0  0  0  0
  148.9700  145.6110   92.1400 C   0  0  0  0  0  0  0  0  0  0  0  0
  150.3390  145.1820   92.7930 C   0  0  0  0  0  0  0  0  0  0  0  0
  145.2920  143.0020   94.7940 C   0  0  0  0  0  0  0  0  0  0  0  0
  145.5670  141.9650   93.9690 C   0  0  0  0  0  0  0  0  0  0  0  0
  144.6230  140.8910   93.8470 C   0  0  0  0  0  0  0  0  0  0  0  0
  144.7520  139.7760   93.0620 C   0  0  0  0  0  0  0  0  0  0  0  0
  143.7430  138.8120   93.0460 C   0  0  0  0  0  0  0  0  0  0  0  0
  142.5940  138.9860   93.8360 C   0  0  0  0  0  0  0  0  0  0  0  0
  142.4560  140.1220   94.6410 C   0  0  0  0  0  0  0  0  0  0  0  0
  140.9970  140.3350   95.6420 Cl  0  0  0  0  0  0  0  0  0  0  0  0
  143.4490  141.0720   94.6570 C   0  0  0  0  0  0  0  0  0  0  0  0
  143.7370  142.6590   95.4970 S   0  0  0  0  0  0  0  0  0  0  0  0
  147.2780  144.1030   93.2140 H   0  0  0  0  0  0  0  0  0  0  0  0
  147.5191  146.4468   95.0259 H   0  0  0  0  0  0  0  0  0  0  0  0
  149.5137  145.7654   95.8905 H   0  0  0  0  0  0  0  0  0  0  0  0
  149.4049  144.2417   94.9204 H   0  0  0  0  0  0  0  0  0  0  0  0
  150.5478  147.5900   94.9526 H   0  0  0  0  0  0  0  0  0  0  0  0
  151.2679  147.4375   93.2985 H   0  0  0  0  0  0  0  0  0  0  0  0
  148.6545  148.3073   94.0409 H   0  0  0  0  0  0  0  0  0  0  0  0
  149.3837  148.1403   92.3996 H   0  0  0  0  0  0  0  0  0  0  0  0
  147.3390  146.8679   92.6282 H   0  0  0  0  0  0  0  0  0  0  0  0
  148.3489  144.7213   91.9595 H   0  0  0  0  0  0  0  0  0  0  0  0
  149.1497  146.1160   91.1794 H   0  0  0  0  0  0  0  0  0  0  0  0
  150.3746  144.0864   92.8848 H   0  0  0  0  0  0  0  0  0  0  0  0
  151.1712  145.5230   92.1597 H   0  0  0  0  0  0  0  0  0  0  0  0
  146.5062  141.9455   93.3968 H   0  0  0  0  0  0  0  0  0  0  0  0
  145.6516  139.6403   92.4437 H   0  0  0  0  0  0  0  0  0  0  0  0
  143.8471  137.9167   92.4155 H   0  0  0  0  0  0  0  0  0  0  0  0
  141.7993  138.2255   93.8215 H   0  0  0  0  0  0  0  0  0  0  0  0
  1  2  2  0
  2  3  1  0
  3  4  1  0
  4  5  1  0
  5  6  1  0
  6  7  1  0
  7  8  1  0
  8  9  1  0
  9 10  1  0
 10 11  1  0
  2 12  1  0
 12 13  2  0
 13 14  1  0
 14 15  2  0
 15 16  1  0
 16 17  2  0
 17 18  1  0
 18 19  1  0
 18 20  2  0
 20 21  1  0
  9  4  1  0
 21 12  1  0
 11  6  1  0
 20 14  1  0
  3 22  1  0
  4 23  1  1
  5 24  1  0
  5 25  1  0
  7 26  1  0
  7 27  1  0
  8 28  1  0
  8 29  1  0
  9 30  1  0
 10 31  1  0
 10 32  1  0
 11 33  1  0
 11 34  1  0
 13 35  1  0
 15 36  1  0
 16 37  1  0
 17 38  1  0
M  END
>  <meeko>  (6)
{"is_sidechain": false}

>  <source_group>  (6)
CHRFAM7A at B face

>  <source_system>  (6)
CHRNA7_encenicline

>  <source_run>  (6)
hybrid_B_face_seed4409_ex32

>  <source_seed>  (6)
4409

>  <vina_pose_rank>  (6)
6

>  <vina_affinity_kcal_mol>  (6)
-5.8529999999999998

>  <vina_rmsd_to_crystal_angstrom>  (6)
9.3704000000000001

$$$$
CHRNA7_encenicline__hybrid_B_face_seed4409_ex32__pose07
     RDKit          3D

 38 41  0  0  0  0  0  0  0  0999 V2000
  147.5430  138.5300   90.1390 O   0  0  0  0  0  0  0  0  0  0  0  0
  147.7600  138.3120   91.2820 C   0  0  0  0  0  0  0  0  0  0  0  0
  146.6730  138.3400   92.2410 N   0  0  0  0  0  0  0  0  0  0  0  0
  145.3000  138.6460   91.7760 C   0  0  1  0  0  0  0  0  0  0  0  0
  144.2730  137.8670   92.6210 C   0  0  0  0  0  0  0  0  0  0  0  0
  143.3760  138.7330   93.2520 N   0  0  0  0  0  0  0  0  0  0  0  0
  142.7170  139.5030   92.3190 C   0  0  0  0  0  0  0  0  0  0  0  0
  143.6760  140.3260   91.5120 C   0  0  0  0  0  0  0  0  0  0  0  0
  145.0270  140.0720   91.9270 C   0  0  0  0  0  0  0  0  0  0  0  0
  145.1460  140.4150   93.3420 C   0  0  0  0  0  0  0  0  0  0  0  0
  144.0790  139.5790   94.1450 C   0  0  0  0  0  0  0  0  0  0  0  0
  149.1900  137.9980   91.7360 C   0  0  0  0  0  0  0  0  0  0  0  0
  149.8960  138.6860   92.6620 C   0  0  0  0  0  0  0  0  0  0  0  0
  151.2310  138.2700   92.9860 C   0  0  0  0  0  0  0  0  0  0  0  0
  152.0710  138.8540   93.8960 C   0  0  0  0  0  0  0  0  0  0  0  0
  153.3490  138.3340   94.1020 C   0  0  0  0  0  0  0  0  0  0  0  0
  153.7750  137.2090   93.3740 C   0  0  0  0  0  0  0  0  0  0  0  0
  152.9220  136.6080   92.4440 C   0  0  0  0  0  0  0  0  0  0  0  0
  153.4670  135.1800   91.5260 Cl  0  0  0  0  0  0  0  0  0  0  0  0
  151.6630  137.1190   92.2400 C   0  0  0  0  0  0  0  0  0  0  0  0
  150.2350  136.7170   91.1890 S   0  0  0  0  0  0  0  0  0  0  0  0
  146.8440  138.1570   93.1920 H   0  0  0  0  0  0  0  0  0  0  0  0
  145.2196  138.3557   90.7180 H   0  0  0  0  0  0  0  0  0  0  0  0
  143.7120  137.1852   91.9649 H   0  0  0  0  0  0  0  0  0  0  0  0
  144.8149  137.3031   93.3945 H   0  0  0  0  0  0  0  0  0  0  0  0
  142.1552  138.8423   91.6423 H   0  0  0  0  0  0  0  0  0  0  0  0
  142.0382  140.1857   92.8512 H   0  0  0  0  0  0  0  0  0  0  0  0
  143.5691  140.0675   90.4482 H   0  0  0  0  0  0  0  0  0  0  0  0
  143.4497  141.3912   91.6671 H   0  0  0  0  0  0  0  0  0  0  0  0
  145.7310  140.6639   91.3237 H   0  0  0  0  0  0  0  0  0  0  0  0
  146.1568  140.1701   93.7004 H   0  0  0  0  0  0  0  0  0  0  0  0
  144.9715  141.4913   93.4871 H   0  0  0  0  0  0  0  0  0  0  0  0
  144.5877  138.9684   94.9055 H   0  0  0  0  0  0  0  0  0  0  0  0
  143.3717  140.2622   94.6380 H   0  0  0  0  0  0  0  0  0  0  0  0
  149.4504  139.5579   93.1631 H   0  0  0  0  0  0  0  0  0  0  0  0
  151.7377  139.7342   94.4653 H   0  0  0  0  0  0  0  0  0  0  0  0
  154.0230  138.8038   94.8335 H   0  0  0  0  0  0  0  0  0  0  0  0
  154.7832  136.8004   93.5370 H   0  0  0  0  0  0  0  0  0  0  0  0
  1  2  2  0
  2  3  1  0
  3  4  1  0
  4  5  1  0
  5  6  1  0
  6  7  1  0
  7  8  1  0
  8  9  1  0
  9 10  1  0
 10 11  1  0
  2 12  1  0
 12 13  2  0
 13 14  1  0
 14 15  2  0
 15 16  1  0
 16 17  2  0
 17 18  1  0
 18 19  1  0
 18 20  2  0
 20 21  1  0
  9  4  1  0
 21 12  1  0
 11  6  1  0
 20 14  1  0
  3 22  1  0
  4 23  1  6
  5 24  1  0
  5 25  1  0
  7 26  1  0
  7 27  1  0
  8 28  1  0
  8 29  1  0
  9 30  1  0
 10 31  1  0
 10 32  1  0
 11 33  1  0
 11 34  1  0
 13 35  1  0
 15 36  1  0
 16 37  1  0
 17 38  1  0
M  END
>  <meeko>  (7)
{"is_sidechain": false}

>  <source_group>  (7)
CHRFAM7A at B face

>  <source_system>  (7)
CHRNA7_encenicline

>  <source_run>  (7)
hybrid_B_face_seed4409_ex32

>  <source_seed>  (7)
4409

>  <vina_pose_rank>  (7)
7

>  <vina_affinity_kcal_mol>  (7)
-5.7960000000000003

>  <vina_rmsd_to_crystal_angstrom>  (7)
6.4503000000000004

$$$$
CHRNA7_encenicline__hybrid_B_face_seed4409_ex32__pose08
     RDKit          3D

 38 41  0  0  0  0  0  0  0  0999 V2000
  146.0230  145.2450   94.4440 O   0  0  0  0  0  0  0  0  0  0  0  0
  146.3190  144.1120   94.6220 C   0  0  0  0  0  0  0  0  0  0  0  0
  147.7160  143.7390   94.7250 N   0  0  0  0  0  0  0  0  0  0  0  0
  148.7590  144.7830   94.6030 C   0  0  1  0  0  0  0  0  0  0  0  0
  149.4100  145.0390   95.9760 C   0  0  0  0  0  0  0  0  0  0  0  0
  150.7880  144.8100   95.9340 N   0  0  0  0  0  0  0  0  0  0  0  0
  151.3790  145.6160   94.9860 C   0  0  0  0  0  0  0  0  0  0  0  0
  150.8170  145.3580   93.6200 C   0  0  0  0  0  0  0  0  0  0  0  0
  149.8010  144.3440   93.6790 C   0  0  0  0  0  0  0  0  0  0  0  0
  150.4000  143.1220   94.2100 C   0  0  0  0  0  0  0  0  0  0  0  0
  151.0350  143.4530   95.6140 C   0  0  0  0  0  0  0  0  0  0  0  0
  145.2180  143.0520   94.7440 C   0  0  0  0  0  0  0  0  0  0  0  0
  145.1470  141.9000   94.0380 C   0  0  0  0  0  0  0  0  0  0  0  0
  144.0530  141.0000   94.2650 C   0  0  0  0  0  0  0  0  0  0  0  0
  143.8370  139.8010   93.6380 C   0  0  0  0  0  0  0  0  0  0  0  0
  142.7200  139.0320   93.9660 C   0  0  0  0  0  0  0  0  0  0  0  0
  141.8150  139.4870   94.9400 C   0  0  0  0  0  0  0  0  0  0  0  0
  142.0290  140.7100   95.5840 C   0  0  0  0  0  0  0  0  0  0  0  0
  140.8790  141.2810   96.8200 Cl  0  0  0  0  0  0  0  0  0  0  0  0
  143.1290  141.4690   95.2620 C   0  0  0  0  0  0  0  0  0  0  0  0
  143.8270  143.0620   95.7900 S   0  0  0  0  0  0  0  0  0  0  0  0
  147.9700  142.8000   94.8750 H   0  0  0  0  0  0  0  0  0  0  0  0
  148.2859  145.7032   94.2297 H   0  0  0  0  0  0  0  0  0  0  0  0
  149.2289  146.0835   96.2695 H   0  0  0  0  0  0  0  0  0  0  0  0
  148.9647  144.3474   96.7063 H   0  0  0  0  0  0  0  0  0  0  0  0
  151.2036  146.6688   95.2520 H   0  0  0  0  0  0  0  0  0  0  0  0
  152.4558  145.3925   94.9648 H   0  0  0  0  0  0  0  0  0  0  0  0
  150.3790  146.2873   93.2270 H   0  0  0  0  0  0  0  0  0  0  0  0
  151.6270  145.0131   92.9606 H   0  0  0  0  0  0  0  0  0  0  0  0
  149.3784  144.1661   92.6791 H   0  0  0  0  0  0  0  0  0  0  0  0
  149.6269  142.3479   94.3244 H   0  0  0  0  0  0  0  0  0  0  0  0
  151.1732  142.7487   93.5224 H   0  0  0  0  0  0  0  0  0  0  0  0
  150.5845  142.8070   96.3820 H   0  0  0  0  0  0  0  0  0  0  0  0
  152.1200  143.2759   95.5774 H   0  0  0  0  0  0  0  0  0  0  0  0
  145.9216  141.6555   93.2962 H   0  0  0  0  0  0  0  0  0  0  0  0
  144.5449  139.4444   92.8753 H   0  0  0  0  0  0  0  0  0  0  0  0
  142.5478  138.0695   93.4621 H   0  0  0  0  0  0  0  0  0  0  0  0
  140.9350  138.8791   95.1969 H   0  0  0  0  0  0  0  0  0  0  0  0
  1  2  2  0
  2  3  1  0
  3  4  1  0
  4  5  1  0
  5  6  1  0
  6  7  1  0
  7  8  1  0
  8  9  1  0
  9 10  1  0
 10 11  1  0
  2 12  1  0
 12 13  2  0
 13 14  1  0
 14 15  2  0
 15 16  1  0
 16 17  2  0
 17 18  1  0
 18 19  1  0
 18 20  2  0
 20 21  1  0
  9  4  1  0
 21 12  1  0
 11  6  1  0
 20 14  1  0
  3 22  1  0
  4 23  1  6
  5 24  1  0
  5 25  1  0
  7 26  1  0
  7 27  1  0
  8 28  1  0
  8 29  1  0
  9 30  1  0
 10 31  1  0
 10 32  1  0
 11 33  1  0
 11 34  1  0
 13 35  1  0
 15 36  1  0
 16 37  1  0
 17 38  1  0
M  END
>  <meeko>  (8)
{"is_sidechain": false}

>  <source_group>  (8)
CHRFAM7A at B face

>  <source_system>  (8)
CHRNA7_encenicline

>  <source_run>  (8)
hybrid_B_face_seed4409_ex32

>  <source_seed>  (8)
4409

>  <vina_pose_rank>  (8)
8

>  <vina_affinity_kcal_mol>  (8)
-5.7919999999999998

>  <vina_rmsd_to_crystal_angstrom>  (8)
9.8876000000000008

$$$$
CHRNA7_encenicline__hybrid_B_face_seed4409_ex32__pose09
     RDKit          3D

 38 41  0  0  0  0  0  0  0  0999 V2000
  146.3060  138.7060   90.4560 O   0  0  0  0  0  0  0  0  0  0  0  0
  146.5660  138.7240   91.6110 C   0  0  0  0  0  0  0  0  0  0  0  0
  147.8380  138.2030   92.0710 N   0  0  0  0  0  0  0  0  0  0  0  0
  148.7980  137.6510   91.0880 C   0  0  1  0  0  0  0  0  0  0  0  0
  149.7320  138.7680   90.5810 C   0  0  0  0  0  0  0  0  0  0  0  0
  151.0710  138.4620   90.8360 N   0  0  0  0  0  0  0  0  0  0  0  0
  151.4130  137.2690   90.2390 C   0  0  0  0  0  0  0  0  0  0  0  0
  150.5670  136.1390   90.7490 C   0  0  0  0  0  0  0  0  0  0  0  0
  149.6190  136.6190   91.7150 C   0  0  0  0  0  0  0  0  0  0  0  0
  150.3550  137.2270   92.8200 C   0  0  0  0  0  0  0  0  0  0  0  0
  151.2790  138.3620   92.2340 C   0  0  0  0  0  0  0  0  0  0  0  0
  145.5540  139.3010   92.6070 C   0  0  0  0  0  0  0  0  0  0  0  0
  144.3830  138.7260   92.9680 C   0  0  0  0  0  0  0  0  0  0  0  0
  143.5360  139.3890   93.9190 C   0  0  0  0  0  0  0  0  0  0  0  0
  142.3290  138.9420   94.3880 C   0  0  0  0  0  0  0  0  0  0  0  0
  141.6150  139.7020   95.3150 C   0  0  0  0  0  0  0  0  0  0  0  0
  142.1350  140.9260   95.7680 C   0  0  0  0  0  0  0  0  0  0  0  0
  143.3670  141.3880   95.2940 C   0  0  0  0  0  0  0  0  0  0  0  0
  144.0220  142.9410   95.8750 Cl  0  0  0  0  0  0  0  0  0  0  0  0
  144.0710  140.6410   94.3810 C   0  0  0  0  0  0  0  0  0  0  0  0
  145.6520  140.7950   93.4950 S   0  0  0  0  0  0  0  0  0  0  0  0
  148.0630  138.2160   93.0290 H   0  0  0  0  0  0  0  0  0  0  0  0
  148.2283  137.2229   90.2500 H   0  0  0  0  0  0  0  0  0  0  0  0
  149.5917  138.8882   89.4966 H   0  0  0  0  0  0  0  0  0  0  0  0
  149.4807  139.6989   91.1104 H   0  0  0  0  0  0  0  0  0  0  0  0
  151.2718  137.3594   89.1519 H   0  0  0  0  0  0  0  0  0  0  0  0
  152.4639  137.0504   90.4793 H   0  0  0  0  0  0  0  0  0  0  0  0
  150.0265  135.6823   89.9068 H   0  0  0  0  0  0  0  0  0  0  0  0
  151.2188  135.3940   91.2288 H   0  0  0  0  0  0  0  0  0  0  0  0
  148.9888  135.7931   92.0766 H   0  0  0  0  0  0  0  0  0  0  0  0
  149.6487  137.6592   93.5442 H   0  0  0  0  0  0  0  0  0  0  0  0
  150.9650  136.4683   93.3321 H   0  0  0  0  0  0  0  0  0  0  0  0
  151.0303  139.3211   92.7118 H   0  0  0  0  0  0  0  0  0  0  0  0
  152.3329  138.1174   92.4325 H   0  0  0  0  0  0  0  0  0  0  0  0
  144.0830  137.7596   92.5367 H   0  0  0  0  0  0  0  0  0  0  0  0
  141.9225  137.9833   94.0335 H   0  0  0  0  0  0  0  0  0  0  0  0
  140.6456  139.3430   95.6909 H   0  0  0  0  0  0  0  0  0  0  0  0
  141.5705  141.5237   96.4988 H   0  0  0  0  0  0  0  0  0  0  0  0
  1  2  2  0
  2  3  1  0
  3  4  1  0
  4  5  1  0
  5  6  1  0
  6  7  1  0
  7  8  1  0
  8  9  1  0
  9 10  1  0
 10 11  1  0
  2 12  1  0
 12 13  2  0
 13 14  1  0
 14 15  2  0
 15 16  1  0
 16 17  2  0
 17 18  1  0
 18 19  1  0
 18 20  2  0
 20 21  1  0
  9  4  1  0
 21 12  1  0
 11  6  1  0
 20 14  1  0
  3 22  1  0
  4 23  1  6
  5 24  1  0
  5 25  1  0
  7 26  1  0
  7 27  1  0
  8 28  1  0
  8 29  1  0
  9 30  1  0
 10 31  1  0
 10 32  1  0
 11 33  1  0
 11 34  1  0
 13 35  1  0
 15 36  1  0
 16 37  1  0
 17 38  1  0
M  END
>  <meeko>  (9)
{"is_sidechain": false}

>  <source_group>  (9)
CHRFAM7A at B face

>  <source_system>  (9)
CHRNA7_encenicline

>  <source_run>  (9)
hybrid_B_face_seed4409_ex32

>  <source_seed>  (9)
4409

>  <vina_pose_rank>  (9)
9

>  <vina_affinity_kcal_mol>  (9)
-5.7539999999999996

>  <vina_rmsd_to_crystal_angstrom>  (9)
8.5790000000000006

$$$$
CHRNA7_encenicline__hybrid_B_face_seed4409_ex32__pose10
     RDKit          3D

 38 41  0  0  0  0  0  0  0  0999 V2000
  146.7930  144.4200   93.4200 O   0  0  0  0  0  0  0  0  0  0  0  0
  146.4390  144.0530   94.4890 C   0  0  0  0  0  0  0  0  0  0  0  0
  147.0430  144.6170   95.6810 N   0  0  0  0  0  0  0  0  0  0  0  0
  148.1000  145.6440   95.5450 C   0  0  1  0  0  0  0  0  0  0  0  0
  147.4880  147.0510   95.6940 C   0  0  0  0  0  0  0  0  0  0  0  0
  148.0790  147.7520   96.7480 N   0  0  0  0  0  0  0  0  0  0  0  0
  149.4390  147.8590   96.5490 C   0  0  0  0  0  0  0  0  0  0  0  0
  150.0870  146.5090   96.4590 C   0  0  0  0  0  0  0  0  0  0  0  0
  149.1030  145.4710   96.5910 C   0  0  0  0  0  0  0  0  0  0  0  0
  148.4460  145.6210   97.8870 C   0  0  0  0  0  0  0  0  0  0  0  0
  147.8370  147.0720   97.9670 C   0  0  0  0  0  0  0  0  0  0  0  0
  145.3420  142.9880   94.6000 C   0  0  0  0  0  0  0  0  0  0  0  0
  145.2820  141.8370   93.8900 C   0  0  0  0  0  0  0  0  0  0  0  0
  144.1900  140.9320   94.1060 C   0  0  0  0  0  0  0  0  0  0  0  0
  143.9850  139.7330   93.4750 C   0  0  0  0  0  0  0  0  0  0  0  0
  142.8690  138.9590   93.7910 C   0  0  0  0  0  0  0  0  0  0  0  0
  141.9530  139.4080   94.7580 C   0  0  0  0  0  0  0  0  0  0  0  0
  142.1560  140.6300   95.4060 C   0  0  0  0  0  0  0  0  0  0  0  0
  140.9920  141.1940   96.6340 Cl  0  0  0  0  0  0  0  0  0  0  0  0
  143.2550  141.3950   95.0960 C   0  0  0  0  0  0  0  0  0  0  0  0
  143.9420  142.9900   95.6330 S   0  0  0  0  0  0  0  0  0  0  0  0
  146.7520  144.3190   96.5720 H   0  0  0  0  0  0  0  0  0  0  0  0
  148.5642  145.5342   94.5538 H   0  0  0  0  0  0  0  0  0  0  0  0
  147.6436  147.6103   94.7597 H   0  0  0  0  0  0  0  0  0  0  0  0
  146.4145  146.9421   95.9079 H   0  0  0  0  0  0  0  0  0  0  0  0
  149.6217  148.4068   95.6128 H   0  0  0  0  0  0  0  0  0  0  0  0
  149.8731  148.3949   97.4060 H   0  0  0  0  0  0  0  0  0  0  0  0
  150.5879  146.4117   95.4845 H   0  0  0  0  0  0  0  0  0  0  0  0
  150.8206  146.4106   97.2727 H   0  0  0  0  0  0  0  0  0  0  0  0
  149.5767  144.4816   96.5086 H   0  0  0  0  0  0  0  0  0  0  0  0
  147.6439  144.8748   97.9861 H   0  0  0  0  0  0  0  0  0  0  0  0
  149.1713  145.4687   98.6999 H   0  0  0  0  0  0  0  0  0  0  0  0
  146.7529  147.0059   98.1414 H   0  0  0  0  0  0  0  0  0  0  0  0
  148.3078  147.6228   98.7946 H   0  0  0  0  0  0  0  0  0  0  0  0
  146.0636  141.5977   93.1539 H   0  0  0  0  0  0  0  0  0  0  0  0
  144.7016  139.3807   92.7184 H   0  0  0  0  0  0  0  0  0  0  0  0
  142.7054  137.9969   93.2835 H   0  0  0  0  0  0  0  0  0  0  0  0
  141.0734  138.7957   95.0057 H   0  0  0  0  0  0  0  0  0  0  0  0
  1  2  2  0
  2  3  1  0
  3  4  1  0
  4  5  1  0
  5  6  1  0
  6  7  1  0
  7  8  1  0
  8  9  1  0
  9 10  1  0
 10 11  1  0
  2 12  1  0
 12 13  2  0
 13 14  1  0
 14 15  2  0
 15 16  1  0
 16 17  2  0
 17 18  1  0
 18 19  1  0
 18 20  2  0
 20 21  1  0
  9  4  1  0
 21 12  1  0
 11  6  1  0
 20 14  1  0
  3 22  1  0
  4 23  1  6
  5 24  1  0
  5 25  1  0
  7 26  1  0
  7 27  1  0
  8 28  1  0
  8 29  1  0
  9 30  1  0
 10 31  1  0
 10 32  1  0
 11 33  1  0
 11 34  1  0
 13 35  1  0
 15 36  1  0
 16 37  1  0
 17 38  1  0
M  END
>  <meeko>  (10)
{"is_sidechain": false}

>  <source_group>  (10)
CHRFAM7A at B face

>  <source_system>  (10)
CHRNA7_encenicline

>  <source_run>  (10)
hybrid_B_face_seed4409_ex32

>  <source_seed>  (10)
4409

>  <vina_pose_rank>  (10)
10

>  <vina_affinity_kcal_mol>  (10)
-5.7249999999999996

>  <vina_rmsd_to_crystal_angstrom>  (10)
10.002700000000001

$$$$
CHRNA7_encenicline__hybrid_B_face_seed4409_ex32__pose11
     RDKit          3D

 38 41  0  0  0  0  0  0  0  0999 V2000
  146.0040  145.2450   95.7710 O   0  0  0  0  0  0  0  0  0  0  0  0
  146.1570  144.4660   94.8920 C   0  0  0  0  0  0  0  0  0  0  0  0
  147.2010  144.6830   93.9100 N   0  0  0  0  0  0  0  0  0  0  0  0
  148.0640  145.8810   94.0170 C   0  0  1  0  0  0  0  0  0  0  0  0
  149.3300  145.5460   94.8320 C   0  0  0  0  0  0  0  0  0  0  0  0
  150.4880  145.7820   94.0870 N   0  0  0  0  0  0  0  0  0  0  0  0
  150.5370  147.0970   93.6790 C   0  0  0  0  0  0  0  0  0  0  0  0
  149.3510  147.4510   92.8310 C   0  0  0  0  0  0  0  0  0  0  0  0
  148.4810  146.3180   92.6880 C   0  0  0  0  0  0  0  0  0  0  0  0
  149.2340  145.2340   92.0630 C   0  0  0  0  0  0  0  0  0  0  0  0
  150.5030  144.9380   92.9490 C   0  0  0  0  0  0  0  0  0  0  0  0
  145.2480  143.2340   94.8060 C   0  0  0  0  0  0  0  0  0  0  0  0
  144.0670  143.0760   95.4460 C   0  0  0  0  0  0  0  0  0  0  0  0
  143.3240  141.8610   95.2650 C   0  0  0  0  0  0  0  0  0  0  0  0
  142.1180  141.5480   95.8360 C   0  0  0  0  0  0  0  0  0  0  0  0
  141.5150  140.3200   95.5640 C   0  0  0  0  0  0  0  0  0  0  0  0
  142.1440  139.4030   94.7050 C   0  0  0  0  0  0  0  0  0  0  0  0
  143.3740  139.7170   94.1180 C   0  0  0  0  0  0  0  0  0  0  0  0
  144.1660  138.5510   93.0260 Cl  0  0  0  0  0  0  0  0  0  0  0  0
  143.9700  140.9260   94.3840 C   0  0  0  0  0  0  0  0  0  0  0  0
  145.5010  141.7750   93.8920 S   0  0  0  0  0  0  0  0  0  0  0  0
  147.3360  144.0380   93.1790 H   0  0  0  0  0  0  0  0  0  0  0  0
  147.4908  146.6772   94.5145 H   0  0  0  0  0  0  0  0  0  0  0  0
  149.3510  146.1726   95.7358 H   0  0  0  0  0  0  0  0  0  0  0  0
  149.2996  144.4795   95.0998 H   0  0  0  0  0  0  0  0  0  0  0  0
  150.5494  147.7469   94.5664 H   0  0  0  0  0  0  0  0  0  0  0  0
  151.4474  147.2397   93.0783 H   0  0  0  0  0  0  0  0  0  0  0  0
  148.7983  148.2745   93.3068 H   0  0  0  0  0  0  0  0  0  0  0  0
  149.7036  147.7576   91.8352 H   0  0  0  0  0  0  0  0  0  0  0  0
  147.6048  146.5826   92.0779 H   0  0  0  0  0  0  0  0  0  0  0  0
  148.6060  144.3331   92.0000 H   0  0  0  0  0  0  0  0  0  0  0  0
  149.5403  145.5223   91.0466 H   0  0  0  0  0  0  0  0  0  0  0  0
  150.4886  143.8864   93.2714 H   0  0  0  0  0  0  0  0  0  0  0  0
  151.4139  145.1275   92.3622 H   0  0  0  0  0  0  0  0  0  0  0  0
  143.6792  143.8714   96.0994 H   0  0  0  0  0  0  0  0  0  0  0  0
  141.6255  142.2654   96.5089 H   0  0  0  0  0  0  0  0  0  0  0  0
  140.5468  140.0694   96.0221 H   0  0  0  0  0  0  0  0  0  0  0  0
  141.6672  138.4345   94.4934 H   0  0  0  0  0  0  0  0  0  0  0  0
  1  2  2  0
  2  3  1  0
  3  4  1  0
  4  5  1  0
  5  6  1  0
  6  7  1  0
  7  8  1  0
  8  9  1  0
  9 10  1  0
 10 11  1  0
  2 12  1  0
 12 13  2  0
 13 14  1  0
 14 15  2  0
 15 16  1  0
 16 17  2  0
 17 18  1  0
 18 19  1  0
 18 20  2  0
 20 21  1  0
  9  4  1  0
 21 12  1  0
 11  6  1  0
 20 14  1  0
  3 22  1  0
  4 23  1  1
  5 24  1  0
  5 25  1  0
  7 26  1  0
  7 27  1  0
  8 28  1  0
  8 29  1  0
  9 30  1  0
 10 31  1  0
 10 32  1  0
 11 33  1  0
 11 34  1  0
 13 35  1  0
 15 36  1  0
 16 37  1  0
 17 38  1  0
M  END
>  <meeko>  (11)
{"is_sidechain": false}

>  <source_group>  (11)
CHRFAM7A at B face

>  <source_system>  (11)
CHRNA7_encenicline

>  <source_run>  (11)
hybrid_B_face_seed4409_ex32

>  <source_seed>  (11)
4409

>  <vina_pose_rank>  (11)
11

>  <vina_affinity_kcal_mol>  (11)
-5.6769999999999996

>  <vina_rmsd_to_crystal_angstrom>  (11)
9.4411000000000005

$$$$
CHRNA7_encenicline__hybrid_B_face_seed4409_ex32__pose12
     RDKit          3D

 38 41  0  0  0  0  0  0  0  0999 V2000
  148.5000  137.6410   92.2860 O   0  0  0  0  0  0  0  0  0  0  0  0
  147.9580  138.1220   91.3490 C   0  0  0  0  0  0  0  0  0  0  0  0
  148.6650  138.2390   90.0890 N   0  0  0  0  0  0  0  0  0  0  0  0
  150.0620  137.7560   89.9900 C   0  0  1  0  0  0  0  0  0  0  0  0
  150.0890  136.3560   89.3470 C   0  0  0  0  0  0  0  0  0  0  0  0
  150.8660  136.3470   88.1850 N   0  0  0  0  0  0  0  0  0  0  0  0
  152.1520  136.7520   88.4650 C   0  0  0  0  0  0  0  0  0  0  0  0
  152.1780  138.1380   89.0390 C   0  0  0  0  0  0  0  0  0  0  0  0
  150.8440  138.6590   89.1510 C   0  0  0  0  0  0  0  0  0  0  0  0
  150.2450  138.6830   87.8190 C   0  0  0  0  0  0  0  0  0  0  0  0
  150.2980  137.2230   87.2270 C   0  0  0  0  0  0  0  0  0  0  0  0
  146.5120  138.6130   91.4800 C   0  0  0  0  0  0  0  0  0  0  0  0
  145.7080  138.9880   90.4590 C   0  0  0  0  0  0  0  0  0  0  0  0
  144.3700  139.4250   90.7370 C   0  0  0  0  0  0  0  0  0  0  0  0
  143.4360  139.8340   89.8220 C   0  0  0  0  0  0  0  0  0  0  0  0
  142.1690  140.2340   90.2470 C   0  0  0  0  0  0  0  0  0  0  0  0
  141.8500  140.2190   91.6160 C   0  0  0  0  0  0  0  0  0  0  0  0
  142.7980  139.8020   92.5550 C   0  0  0  0  0  0  0  0  0  0  0  0
  142.3870  139.7830   94.2900 Cl  0  0  0  0  0  0  0  0  0  0  0  0
  144.0470  139.4070   92.1390 C   0  0  0  0  0  0  0  0  0  0  0  0
  145.5690  138.8050   92.9310 S   0  0  0  0  0  0  0  0  0  0  0  0
  148.2210  138.6350   89.3050 H   0  0  0  0  0  0  0  0  0  0  0  0
  150.4888  137.7165   91.0031 H   0  0  0  0  0  0  0  0  0  0  0  0
  150.5115  135.6391   90.0664 H   0  0  0  0  0  0  0  0  0  0  0  0
  149.0594  136.0765   89.0791 H   0  0  0  0  0  0  0  0  0  0  0  0
  152.5961  136.0556   89.1915 H   0  0  0  0  0  0  0  0  0  0  0  0
  152.7253  136.7558   87.5262 H   0  0  0  0  0  0  0  0  0  0  0  0
  152.6405  138.1085   90.0366 H   0  0  0  0  0  0  0  0  0  0  0  0
  152.7606  138.7897   88.3713 H   0  0  0  0  0  0  0  0  0  0  0  0
  150.8619  139.6693   89.5857 H   0  0  0  0  0  0  0  0  0  0  0  0
  149.1998  139.0192   87.8870 H   0  0  0  0  0  0  0  0  0  0  0  0
  150.7966  139.3768   87.1675 H   0  0  0  0  0  0  0  0  0  0  0  0
  149.2789  136.8888   86.9828 H   0  0  0  0  0  0  0  0  0  0  0  0
  150.9128  137.2185   86.3149 H   0  0  0  0  0  0  0  0  0  0  0  0
  146.0772  138.9582   89.4232 H   0  0  0  0  0  0  0  0  0  0  0  0
  143.6855  139.8470   88.7507 H   0  0  0  0  0  0  0  0  0  0  0  0
  141.4197  140.5611   89.5111 H   0  0  0  0  0  0  0  0  0  0  0  0
  140.8510  140.5365   91.9495 H   0  0  0  0  0  0  0  0  0  0  0  0
  1  2  2  0
  2  3  1  0
  3  4  1  0
  4  5  1  0
  5  6  1  0
  6  7  1  0
  7  8  1  0
  8  9  1  0
  9 10  1  0
 10 11  1  0
  2 12  1  0
 12 13  2  0
 13 14  1  0
 14 15  2  0
 15 16  1  0
 16 17  2  0
 17 18  1  0
 18 19  1  0
 18 20  2  0
 20 21  1  0
  9  4  1  0
 21 12  1  0
 11  6  1  0
 20 14  1  0
  3 22  1  0
  4 23  1  1
  5 24  1  0
  5 25  1  0
  7 26  1  0
  7 27  1  0
  8 28  1  0
  8 29  1  0
  9 30  1  0
 10 31  1  0
 10 32  1  0
 11 33  1  0
 11 34  1  0
 13 35  1  0
 15 36  1  0
 16 37  1  0
 17 38  1  0
M  END
>  <meeko>  (12)
{"is_sidechain": false}

>  <source_group>  (12)
CHRFAM7A at B face

>  <source_system>  (12)
CHRNA7_encenicline

>  <source_run>  (12)
hybrid_B_face_seed4409_ex32

>  <source_seed>  (12)
4409

>  <vina_pose_rank>  (12)
12

>  <vina_affinity_kcal_mol>  (12)
-5.5460000000000003

>  <vina_rmsd_to_crystal_angstrom>  (12)
8.5672999999999995

$$$$
CHRNA7_encenicline__hybrid_B_face_seed4409_ex32__pose13
     RDKit          3D

 38 41  0  0  0  0  0  0  0  0999 V2000
  151.5600  136.3430   87.3800 O   0  0  0  0  0  0  0  0  0  0  0  0
  150.8030  136.2320   88.2840 C   0  0  0  0  0  0  0  0  0  0  0  0
  149.4980  135.6410   88.0620 N   0  0  0  0  0  0  0  0  0  0  0  0
  149.1270  135.1850   86.7020 C   0  0  1  0  0  0  0  0  0  0  0  0
  148.0320  134.1040   86.7910 C   0  0  0  0  0  0  0  0  0  0  0  0
  146.8850  134.4860   86.0910 N   0  0  0  0  0  0  0  0  0  0  0  0
  147.1880  134.7280   84.7690 C   0  0  0  0  0  0  0  0  0  0  0  0
  148.2080  135.8190   84.6320 C   0  0  0  0  0  0  0  0  0  0  0  0
  148.6000  136.3040   85.9260 C   0  0  0  0  0  0  0  0  0  0  0  0
  147.4130  136.8160   86.6060 C   0  0  0  0  0  0  0  0  0  0  0  0
  146.3430  135.6600   86.6700 C   0  0  0  0  0  0  0  0  0  0  0  0
  151.2130  136.7120   89.6810 C   0  0  0  0  0  0  0  0  0  0  0  0
  152.2120  136.1950   90.4330 C   0  0  0  0  0  0  0  0  0  0  0  0
  152.4820  136.7530   91.7280 C   0  0  0  0  0  0  0  0  0  0  0  0
  153.4510  136.3480   92.6060 C   0  0  0  0  0  0  0  0  0  0  0  0
  153.5920  136.9910   93.8360 C   0  0  0  0  0  0  0  0  0  0  0  0
  152.7390  138.0560   94.1740 C   0  0  0  0  0  0  0  0  0  0  0  0
  151.7480  138.4750   93.2810 C   0  0  0  0  0  0  0  0  0  0  0  0
  150.6700  139.8270   93.7150 Cl  0  0  0  0  0  0  0  0  0  0  0  0
  151.6070  137.8430   92.0690 C   0  0  0  0  0  0  0  0  0  0  0  0
  150.5200  138.0030   90.6210 S   0  0  0  0  0  0  0  0  0  0  0  0
  148.8640  135.5430   88.8080 H   0  0  0  0  0  0  0  0  0  0  0  0
  150.0255  134.7770   86.2159 H   0  0  0  0  0  0  0  0  0  0  0  0
  148.4177  133.1669   86.3631 H   0  0  0  0  0  0  0  0  0  0  0  0
  147.7641  133.9668   87.8490 H   0  0  0  0  0  0  0  0  0  0  0  0
  147.5866  133.8069   84.3188 H   0  0  0  0  0  0  0  0  0  0  0  0
  146.2688  135.0472   84.2561 H   0  0  0  0  0  0  0  0  0  0  0  0
  149.0922  135.4249   84.1096 H   0  0  0  0  0  0  0  0  0  0  0  0
  147.7683  136.6483   84.0585 H   0  0  0  0  0  0  0  0  0  0  0  0
  149.3593  137.0935   85.8253 H   0  0  0  0  0  0  0  0  0  0  0  0
  147.6767  137.1357   87.6249 H   0  0  0  0  0  0  0  0  0  0  0  0
  147.0060  137.6798   86.0600 H   0  0  0  0  0  0  0  0  0  0  0  0
  146.0774  135.4631   87.7191 H   0  0  0  0  0  0  0  0  0  0  0  0
  145.4420  135.9615   86.1156 H   0  0  0  0  0  0  0  0  0  0  0  0
  152.8123  135.3542   90.0553 H   0  0  0  0  0  0  0  0  0  0  0  0
  154.1189  135.5150   92.3415 H   0  0  0  0  0  0  0  0  0  0  0  0
  154.3705  136.6647   94.5413 H   0  0  0  0  0  0  0  0  0  0  0  0
  152.8515  138.5615   95.1445 H   0  0  0  0  0  0  0  0  0  0  0  0
  1  2  2  0
  2  3  1  0
  3  4  1  0
  4  5  1  0
  5  6  1  0
  6  7  1  0
  7  8  1  0
  8  9  1  0
  9 10  1  0
 10 11  1  0
  2 12  1  0
 12 13  2  0
 13 14  1  0
 14 15  2  0
 15 16  1  0
 16 17  2  0
 17 18  1  0
 18 19  1  0
 18 20  2  0
 20 21  1  0
  9  4  1  0
 21 12  1  0
 11  6  1  0
 20 14  1  0
  3 22  1  0
  4 23  1  6
  5 24  1  0
  5 25  1  0
  7 26  1  0
  7 27  1  0
  8 28  1  0
  8 29  1  0
  9 30  1  0
 10 31  1  0
 10 32  1  0
 11 33  1  0
 11 34  1  0
 13 35  1  0
 15 36  1  0
 16 37  1  0
 17 38  1  0
M  END
>  <meeko>  (13)
{"is_sidechain": false}

>  <source_group>  (13)
CHRFAM7A at B face

>  <source_system>  (13)
CHRNA7_encenicline

>  <source_run>  (13)
hybrid_B_face_seed4409_ex32

>  <source_seed>  (13)
4409

>  <vina_pose_rank>  (13)
13

>  <vina_affinity_kcal_mol>  (13)
-5.5119999999999996

>  <vina_rmsd_to_crystal_angstrom>  (13)
8.8289000000000009

$$$$
CHRNA7_encenicline__hybrid_B_face_seed4409_ex32__pose14
     RDKit          3D

 38 41  0  0  0  0  0  0  0  0999 V2000
  139.8300  140.9500   87.7370 O   0  0  0  0  0  0  0  0  0  0  0  0
  140.7380  140.1920   87.8030 C   0  0  0  0  0  0  0  0  0  0  0  0
  141.0750  139.3710   86.6560 N   0  0  0  0  0  0  0  0  0  0  0  0
  140.2750  139.4890   85.4160 C   0  0  1  0  0  0  0  0  0  0  0  0
  141.2060  139.7280   84.2110 C   0  0  0  0  0  0  0  0  0  0  0  0
  141.0520  138.7290   83.2460 N   0  0  0  0  0  0  0  0  0  0  0  0
  139.7440  138.6770   82.8150 C   0  0  0  0  0  0  0  0  0  0  0  0
  138.8050  138.3850   83.9480 C   0  0  0  0  0  0  0  0  0  0  0  0
  139.5320  138.2540   85.1800 C   0  0  0  0  0  0  0  0  0  0  0  0
  140.4910  137.1620   85.0350 C   0  0  0  0  0  0  0  0  0  0  0  0
  141.4130  137.4750   83.7960 C   0  0  0  0  0  0  0  0  0  0  0  0
  141.5490  140.0910   89.1000 C   0  0  0  0  0  0  0  0  0  0  0  0
  142.8590  139.7640   89.1900 C   0  0  0  0  0  0  0  0  0  0  0  0
  143.4850  139.7110   90.4800 C   0  0  0  0  0  0  0  0  0  0  0  0
  144.7940  139.4010   90.7410 C   0  0  0  0  0  0  0  0  0  0  0  0
  145.2610  139.3900   92.0560 C   0  0  0  0  0  0  0  0  0  0  0  0
  144.3880  139.6960   93.1140 C   0  0  0  0  0  0  0  0  0  0  0  0
  143.0510  140.0150   92.8540 C   0  0  0  0  0  0  0  0  0  0  0  0
  141.9490  140.4050   94.2000 Cl  0  0  0  0  0  0  0  0  0  0  0  0
  142.5890  140.0260   91.5600 C   0  0  0  0  0  0  0  0  0  0  0  0
  141.0060  140.3610   90.7310 S   0  0  0  0  0  0  0  0  0  0  0  0
  141.8290  138.7400   86.7020 H   0  0  0  0  0  0  0  0  0  0  0  0
  139.5787  140.3327   85.5318 H   0  0  0  0  0  0  0  0  0  0  0  0
  140.9659  140.7022   83.7601 H   0  0  0  0  0  0  0  0  0  0  0  0
  142.2467  139.7105   84.5667 H   0  0  0  0  0  0  0  0  0  0  0  0
  139.4756  139.6458   82.3685 H   0  0  0  0  0  0  0  0  0  0  0  0
  139.6555  137.8679   82.0750 H   0  0  0  0  0  0  0  0  0  0  0  0
  138.0811  139.2081   84.0401 H   0  0  0  0  0  0  0  0  0  0  0  0
  138.2796  137.4408   83.7416 H   0  0  0  0  0  0  0  0  0  0  0  0
  138.8415  138.0559   86.0130 H   0  0  0  0  0  0  0  0  0  0  0  0
  141.1045  137.0824   85.9446 H   0  0  0  0  0  0  0  0  0  0  0  0
  139.9614  136.2100   84.8826 H   0  0  0  0  0  0  0  0  0  0  0  0
  142.4641  137.5048   84.1189 H   0  0  0  0  0  0  0  0  0  0  0  0
  141.2860  136.6901   83.0359 H   0  0  0  0  0  0  0  0  0  0  0  0
  143.4388  139.5408   88.2823 H   0  0  0  0  0  0  0  0  0  0  0  0
  145.4773  139.1606   89.9132 H   0  0  0  0  0  0  0  0  0  0  0  0
  146.3122  139.1419   92.2644 H   0  0  0  0  0  0  0  0  0  0  0  0
  144.7573  139.6846   94.1501 H   0  0  0  0  0  0  0  0  0  0  0  0
  1  2  2  0
  2  3  1  0
  3  4  1  0
  4  5  1  0
  5  6  1  0
  6  7  1  0
  7  8  1  0
  8  9  1  0
  9 10  1  0
 10 11  1  0
  2 12  1  0
 12 13  2  0
 13 14  1  0
 14 15  2  0
 15 16  1  0
 16 17  2  0
 17 18  1  0
 18 19  1  0
 18 20  2  0
 20 21  1  0
  9  4  1  0
 21 12  1  0
 11  6  1  0
 20 14  1  0
  3 22  1  0
  4 23  1  1
  5 24  1  0
  5 25  1  0
  7 26  1  0
  7 27  1  0
  8 28  1  0
  8 29  1  0
  9 30  1  0
 10 31  1  0
 10 32  1  0
 11 33  1  0
 11 34  1  0
 13 35  1  0
 15 36  1  0
 16 37  1  0
 17 38  1  0
M  END
>  <meeko>  (14)
{"is_sidechain": false}

>  <source_group>  (14)
CHRFAM7A at B face

>  <source_system>  (14)
CHRNA7_encenicline

>  <source_run>  (14)
hybrid_B_face_seed4409_ex32

>  <source_seed>  (14)
4409

>  <vina_pose_rank>  (14)
14

>  <vina_affinity_kcal_mol>  (14)
-5.3819999999999997

>  <vina_rmsd_to_crystal_angstrom>  (14)
5.1573000000000002

$$$$
CHRNA7_encenicline__hybrid_B_face_seed4409_ex32__pose15
     RDKit          3D

 38 41  0  0  0  0  0  0  0  0999 V2000
  147.9800  138.4340   89.4850 O   0  0  0  0  0  0  0  0  0  0  0  0
  147.7450  138.2650   90.6330 C   0  0  0  0  0  0  0  0  0  0  0  0
  148.7360  137.6380   91.4870 N   0  0  0  0  0  0  0  0  0  0  0  0
  150.0310  137.2140   90.9080 C   0  0  1  0  0  0  0  0  0  0  0  0
  151.0860  138.3190   91.1150 C   0  0  0  0  0  0  0  0  0  0  0  0
  152.1820  137.8430   91.8400 N   0  0  0  0  0  0  0  0  0  0  0  0
  152.7570  136.7720   91.1910 C   0  0  0  0  0  0  0  0  0  0  0  0
  151.7800  135.6460   91.0210 C   0  0  0  0  0  0  0  0  0  0  0  0
  150.5030  136.0030   91.5730 C   0  0  0  0  0  0  0  0  0  0  0  0
  150.6800  136.2970   92.9930 C   0  0  0  0  0  0  0  0  0  0  0  0
  151.7610  137.4370   93.1300 C   0  0  0  0  0  0  0  0  0  0  0  0
  146.3960  138.7140   91.2050 C   0  0  0  0  0  0  0  0  0  0  0  0
  146.1110  138.8900   92.5160 C   0  0  0  0  0  0  0  0  0  0  0  0
  144.7970  139.3180   92.9020 C   0  0  0  0  0  0  0  0  0  0  0  0
  144.3520  139.5420   94.1780 C   0  0  0  0  0  0  0  0  0  0  0  0
  143.0380  139.9570   94.3970 C   0  0  0  0  0  0  0  0  0  0  0  0
  142.1700  140.1450   93.3080 C   0  0  0  0  0  0  0  0  0  0  0  0
  142.6180  139.9190   92.0030 C   0  0  0  0  0  0  0  0  0  0  0  0
  141.5120  140.1610   90.6250 Cl  0  0  0  0  0  0  0  0  0  0  0  0
  143.9120  139.5100   91.7850 C   0  0  0  0  0  0  0  0  0  0  0  0
  144.9350  139.0980   90.3400 S   0  0  0  0  0  0  0  0  0  0  0  0
  148.5490  137.4960   92.4420 H   0  0  0  0  0  0  0  0  0  0  0  0
  149.8855  137.0239   89.8344 H   0  0  0  0  0  0  0  0  0  0  0  0
  151.4321  138.6729   90.1327 H   0  0  0  0  0  0  0  0  0  0  0  0
  150.6233  139.1399   91.6825 H   0  0  0  0  0  0  0  0  0  0  0  0
  153.1031  137.0984   90.1992 H   0  0  0  0  0  0  0  0  0  0  0  0
  153.5995  136.4105   91.7990 H   0  0  0  0  0  0  0  0  0  0  0  0
  151.6630  135.4264   89.9495 H   0  0  0  0  0  0  0  0  0  0  0  0
  152.1617  134.7598   91.5492 H   0  0  0  0  0  0  0  0  0  0  0  0
  149.7829  135.1831   91.4344 H   0  0  0  0  0  0  0  0  0  0  0  0
  149.7263  136.6345   93.4249 H   0  0  0  0  0  0  0  0  0  0  0  0
  151.0096  135.3949   93.5293 H   0  0  0  0  0  0  0  0  0  0  0  0
  151.3238  138.2956   93.6606 H   0  0  0  0  0  0  0  0  0  0  0  0
  152.6247  137.0585   93.6964 H   0  0  0  0  0  0  0  0  0  0  0  0
  146.8808  138.7064   93.2800 H   0  0  0  0  0  0  0  0  0  0  0  0
  145.0311  139.3946   95.0307 H   0  0  0  0  0  0  0  0  0  0  0  0
  142.6816  140.1370   95.4220 H   0  0  0  0  0  0  0  0  0  0  0  0
  141.1341  140.4712   93.4829 H   0  0  0  0  0  0  0  0  0  0  0  0
  1  2  2  0
  2  3  1  0
  3  4  1  0
  4  5  1  0
  5  6  1  0
  6  7  1  0
  7  8  1  0
  8  9  1  0
  9 10  1  0
 10 11  1  0
  2 12  1  0
 12 13  2  0
 13 14  1  0
 14 15  2  0
 15 16  1  0
 16 17  2  0
 17 18  1  0
 18 19  1  0
 18 20  2  0
 20 21  1  0
  9  4  1  0
 21 12  1  0
 11  6  1  0
 20 14  1  0
  3 22  1  0
  4 23  1  6
  5 24  1  0
  5 25  1  0
  7 26  1  0
  7 27  1  0
  8 28  1  0
  8 29  1  0
  9 30  1  0
 10 31  1  0
 10 32  1  0
 11 33  1  0
 11 34  1  0
 13 35  1  0
 15 36  1  0
 16 37  1  0
 17 38  1  0
M  END
>  <meeko>  (15)
{"is_sidechain": false}

>  <source_group>  (15)
CHRFAM7A at B face

>  <source_system>  (15)
CHRNA7_encenicline

>  <source_run>  (15)
hybrid_B_face_seed4409_ex32

>  <source_seed>  (15)
4409

>  <vina_pose_rank>  (15)
15

>  <vina_affinity_kcal_mol>  (15)
-5.2539999999999996

>  <vina_rmsd_to_crystal_angstrom>  (15)
9.0349000000000004

$$$$
CHRNA7_encenicline__hybrid_B_face_seed4409_ex32__pose16
     RDKit          3D

 38 41  0  0  0  0  0  0  0  0999 V2000
  144.6670  145.0560   98.5290 O   0  0  0  0  0  0  0  0  0  0  0  0
  144.8130  144.4770   97.5070 C   0  0  0  0  0  0  0  0  0  0  0  0
  146.0000  144.7150   96.7080 N   0  0  0  0  0  0  0  0  0  0  0  0
  147.0150  145.6830   97.1810 C   0  0  1  0  0  0  0  0  0  0  0  0
  148.4120  145.2660   96.6820 C   0  0  0  0  0  0  0  0  0  0  0  0
  148.9950  146.2750   95.9100 N   0  0  0  0  0  0  0  0  0  0  0  0
  149.0940  147.4400   96.6390 C   0  0  0  0  0  0  0  0  0  0  0  0
  147.7470  147.9160   97.0950 C   0  0  0  0  0  0  0  0  0  0  0  0
  146.7210  147.0130   96.6560 C   0  0  0  0  0  0  0  0  0  0  0  0
  146.7570  146.9490   95.1970 C   0  0  0  0  0  0  0  0  0  0  0  0
  148.2050  146.5090   94.7580 C   0  0  0  0  0  0  0  0  0  0  0  0
  143.7460  143.4800   97.0410 C   0  0  0  0  0  0  0  0  0  0  0  0
  142.4500  143.4700   97.4270 C   0  0  0  0  0  0  0  0  0  0  0  0
  141.5640  142.4700   96.9020 C   0  0  0  0  0  0  0  0  0  0  0  0
  140.2330  142.3260   97.1890 C   0  0  0  0  0  0  0  0  0  0  0  0
  139.4980  141.2980   96.5970 C   0  0  0  0  0  0  0  0  0  0  0  0
  140.1240  140.4100   95.7060 C   0  0  0  0  0  0  0  0  0  0  0  0
  141.4830  140.5530   95.4070 C   0  0  0  0  0  0  0  0  0  0  0  0
  142.2720  139.4250   94.2730 Cl  0  0  0  0  0  0  0  0  0  0  0  0
  142.2090  141.5650   95.9890 C   0  0  0  0  0  0  0  0  0  0  0  0
  143.9290  142.1510   95.9320 S   0  0  0  0  0  0  0  0  0  0  0  0
  146.1300  144.2360   95.8580 H   0  0  0  0  0  0  0  0  0  0  0  0
  146.9937  145.6978   98.2807 H   0  0  0  0  0  0  0  0  0  0  0  0
  149.0563  145.0604   97.5495 H   0  0  0  0  0  0  0  0  0  0  0  0
  148.3047  144.3672   96.0569 H   0  0  0  0  0  0  0  0  0  0  0  0
  149.7266  147.2581   97.5203 H   0  0  0  0  0  0  0  0  0  0  0  0
  149.5354  148.2150   95.9951 H   0  0  0  0  0  0  0  0  0  0  0  0
  147.7351  147.9713   98.1935 H   0  0  0  0  0  0  0  0  0  0  0  0
  147.5555  148.9097   96.6639 H   0  0  0  0  0  0  0  0  0  0  0  0
  145.7353  147.3544   97.0052 H   0  0  0  0  0  0  0  0  0  0  0  0
  146.0202  146.2151   94.8383 H   0  0  0  0  0  0  0  0  0  0  0  0
  146.5125  147.9319   94.7678 H   0  0  0  0  0  0  0  0  0  0  0  0
  148.1434  145.5867   94.1617 H   0  0  0  0  0  0  0  0  0  0  0  0
  148.6636  147.3054   94.1535 H   0  0  0  0  0  0  0  0  0  0  0  0
  142.0776  144.2224   98.1378 H   0  0  0  0  0  0  0  0  0  0  0  0
  139.7428  143.0210   97.8866 H   0  0  0  0  0  0  0  0  0  0  0  0
  138.4287  141.1829   96.8279 H   0  0  0  0  0  0  0  0  0  0  0  0
  139.5432  139.5993   95.2418 H   0  0  0  0  0  0  0  0  0  0  0  0
  1  2  2  0
  2  3  1  0
  3  4  1  0
  4  5  1  0
  5  6  1  0
  6  7  1  0
  7  8  1  0
  8  9  1  0
  9 10  1  0
 10 11  1  0
  2 12  1  0
 12 13  2  0
 13 14  1  0
 14 15  2  0
 15 16  1  0
 16 17  2  0
 17 18  1  0
 18 19  1  0
 18 20  2  0
 20 21  1  0
  9  4  1  0
 21 12  1  0
 11  6  1  0
 20 14  1  0
  3 22  1  0
  4 23  1  1
  5 24  1  0
  5 25  1  0
  7 26  1  0
  7 27  1  0
  8 28  1  0
  8 29  1  0
  9 30  1  0
 10 31  1  0
 10 32  1  0
 11 33  1  0
 11 34  1  0
 13 35  1  0
 15 36  1  0
 16 37  1  0
 17 38  1  0
M  END
>  <meeko>  (16)
{"is_sidechain": false}

>  <source_group>  (16)
CHRFAM7A at B face

>  <source_system>  (16)
CHRNA7_encenicline

>  <source_run>  (16)
hybrid_B_face_seed4409_ex32

>  <source_seed>  (16)
4409

>  <vina_pose_rank>  (16)
16

>  <vina_affinity_kcal_mol>  (16)
-5.2519999999999998

>  <vina_rmsd_to_crystal_angstrom>  (16)
10.525399999999999

$$$$
CHRNA7_encenicline__hybrid_B_face_seed4409_ex32__pose17
     RDKit          3D

 38 41  0  0  0  0  0  0  0  0999 V2000
  151.8650  136.3680   87.8360 O   0  0  0  0  0  0  0  0  0  0  0  0
  150.9860  136.5360   88.6110 C   0  0  0  0  0  0  0  0  0  0  0  0
  149.6310  136.1630   88.2550 N   0  0  0  0  0  0  0  0  0  0  0  0
  149.3630  135.5790   86.9210 C   0  0  1  0  0  0  0  0  0  0  0  0
  148.3400  134.4320   87.0460 C   0  0  0  0  0  0  0  0  0  0  0  0
  147.2070  134.6770   86.2650 N   0  0  0  0  0  0  0  0  0  0  0  0
  147.5620  134.8380   84.9430 C   0  0  0  0  0  0  0  0  0  0  0  0
  148.5130  135.9850   84.7670 C   0  0  0  0  0  0  0  0  0  0  0  0
  148.8030  136.5940   86.0340 C   0  0  0  0  0  0  0  0  0  0  0  0
  147.5500  137.0720   86.6140 C   0  0  0  0  0  0  0  0  0  0  0  0
  146.5590  135.8510   86.7210 C   0  0  0  0  0  0  0  0  0  0  0  0
  151.2930  137.1420   89.9850 C   0  0  0  0  0  0  0  0  0  0  0  0
  151.2200  138.4550   90.3050 C   0  0  0  0  0  0  0  0  0  0  0  0
  151.5370  138.8750   91.6400 C   0  0  0  0  0  0  0  0  0  0  0  0
  151.5100  140.1570   92.1210 C   0  0  0  0  0  0  0  0  0  0  0  0
  151.8470  140.4110   93.4510 C   0  0  0  0  0  0  0  0  0  0  0  0
  152.2140  139.3510   94.2980 C   0  0  0  0  0  0  0  0  0  0  0  0
  152.2420  138.0400   93.8130 C   0  0  0  0  0  0  0  0  0  0  0  0
  152.7070  136.6990   94.8920 Cl  0  0  0  0  0  0  0  0  0  0  0  0
  151.9110  137.7870   92.5030 C   0  0  0  0  0  0  0  0  0  0  0  0
  151.7960  136.3210   91.4350 S   0  0  0  0  0  0  0  0  0  0  0  0
  148.8950  136.2970   88.8950 H   0  0  0  0  0  0  0  0  0  0  0  0
  150.3110  135.2003   86.5113 H   0  0  0  0  0  0  0  0  0  0  0  0
  148.8095  133.4947   86.7127 H   0  0  0  0  0  0  0  0  0  0  0  0
  148.0279  134.3572   88.0981 H   0  0  0  0  0  0  0  0  0  0  0  0
  148.0441  133.9156   84.5871 H   0  0  0  0  0  0  0  0  0  0  0  0
  146.6515  135.0513   84.3637 H   0  0  0  0  0  0  0  0  0  0  0  0
  149.4477  135.6154   84.3202 H   0  0  0  0  0  0  0  0  0  0  0  0
  148.0497  136.7346   84.1087 H   0  0  0  0  0  0  0  0  0  0  0  0
  149.5120  137.4252   85.9061 H   0  0  0  0  0  0  0  0  0  0  0  0
  147.7378  137.4879   87.6149 H   0  0  0  0  0  0  0  0  0  0  0  0
  147.1150  137.8600   85.9816 H   0  0  0  0  0  0  0  0  0  0  0  0
  146.2530  135.7176   87.7691 H   0  0  0  0  0  0  0  0  0  0  0  0
  145.6705  136.0440   86.1019 H   0  0  0  0  0  0  0  0  0  0  0  0
  150.9201  139.1943   89.5477 H   0  0  0  0  0  0  0  0  0  0  0  0
  151.2225  140.9868   91.4586 H   0  0  0  0  0  0  0  0  0  0  0  0
  151.8255  141.4409   93.8367 H   0  0  0  0  0  0  0  0  0  0  0  0
  152.4801  139.5536   95.3459 H   0  0  0  0  0  0  0  0  0  0  0  0
  1  2  2  0
  2  3  1  0
  3  4  1  0
  4  5  1  0
  5  6  1  0
  6  7  1  0
  7  8  1  0
  8  9  1  0
  9 10  1  0
 10 11  1  0
  2 12  1  0
 12 13  2  0
 13 14  1  0
 14 15  2  0
 15 16  1  0
 16 17  2  0
 17 18  1  0
 18 19  1  0
 18 20  2  0
 20 21  1  0
  9  4  1  0
 21 12  1  0
 11  6  1  0
 20 14  1  0
  3 22  1  0
  4 23  1  6
  5 24  1  0
  5 25  1  0
  7 26  1  0
  7 27  1  0
  8 28  1  0
  8 29  1  0
  9 30  1  0
 10 31  1  0
 10 32  1  0
 11 33  1  0
 11 34  1  0
 13 35  1  0
 15 36  1  0
 16 37  1  0
 17 38  1  0
M  END
>  <meeko>  (17)
{"is_sidechain": false}

>  <source_group>  (17)
CHRFAM7A at B face

>  <source_system>  (17)
CHRNA7_encenicline

>  <source_run>  (17)
hybrid_B_face_seed4409_ex32

>  <source_seed>  (17)
4409

>  <vina_pose_rank>  (17)
17

>  <vina_affinity_kcal_mol>  (17)
-5.165

>  <vina_rmsd_to_crystal_angstrom>  (17)
8.8917999999999999

$$$$
CHRNA7_encenicline__hybrid_B_face_seed4409_ex32__pose18
     RDKit          3D

 38 41  0  0  0  0  0  0  0  0999 V2000
  148.6040  137.6290   92.2250 O   0  0  0  0  0  0  0  0  0  0  0  0
  147.9620  138.1050   91.3510 C   0  0  0  0  0  0  0  0  0  0  0  0
  148.5240  138.2110   90.0190 N   0  0  0  0  0  0  0  0  0  0  0  0
  149.9010  137.7250   89.7690 C   0  0  1  0  0  0  0  0  0  0  0  0
  149.8560  136.2960   89.1930 C   0  0  0  0  0  0  0  0  0  0  0  0
  150.4810  136.2330   87.9450 N   0  0  0  0  0  0  0  0  0  0  0  0
  151.7910  136.6510   88.0430 C   0  0  0  0  0  0  0  0  0  0  0  0
  151.8790  138.0620   88.5430 C   0  0  0  0  0  0  0  0  0  0  0  0
  150.5670  138.5870   88.7970 C   0  0  0  0  0  0  0  0  0  0  0  0
  149.8060  138.5490   87.5510 C   0  0  0  0  0  0  0  0  0  0  0  0
  149.7930  137.0630   87.0260 C   0  0  0  0  0  0  0  0  0  0  0  0
  146.5400  138.6000   91.6380 C   0  0  0  0  0  0  0  0  0  0  0  0
  146.0150  138.8310   92.8640 C   0  0  0  0  0  0  0  0  0  0  0  0
  144.6620  139.2970   92.9760 C   0  0  0  0  0  0  0  0  0  0  0  0
  143.9880  139.5790   94.1350 C   0  0  0  0  0  0  0  0  0  0  0  0
  142.6670  140.0250   94.0840 C   0  0  0  0  0  0  0  0  0  0  0  0
  142.0270  140.1850   92.8430 C   0  0  0  0  0  0  0  0  0  0  0  0
  142.7100  139.9010   91.6560 C   0  0  0  0  0  0  0  0  0  0  0  0
  141.8940  140.1080   90.0850 Cl  0  0  0  0  0  0  0  0  0  0  0  0
  144.0110  139.4610   91.7040 C   0  0  0  0  0  0  0  0  0  0  0  0
  145.2810  138.9760   90.4970 S   0  0  0  0  0  0  0  0  0  0  0  0
  147.9960  138.6030   89.2870 H   0  0  0  0  0  0  0  0  0  0  0  0
  150.4508  137.7344   90.7217 H   0  0  0  0  0  0  0  0  0  0  0  0
  150.3698  135.6137   89.8862 H   0  0  0  0  0  0  0  0  0  0  0  0
  148.8027  136.0039   89.0695 H   0  0  0  0  0  0  0  0  0  0  0  0
  152.3264  135.9901   88.7405 H   0  0  0  0  0  0  0  0  0  0  0  0
  152.2435  136.6098   87.0412 H   0  0  0  0  0  0  0  0  0  0  0  0
  152.4631  138.0803   89.4749 H   0  0  0  0  0  0  0  0  0  0  0  0
  152.3685  138.6815   87.7771 H   0  0  0  0  0  0  0  0  0  0  0  0
  150.6335  139.6165   89.1788 H   0  0  0  0  0  0  0  0  0  0  0  0
  148.7757  138.8883   87.7336 H   0  0  0  0  0  0  0  0  0  0  0  0
  150.2675  139.2115   86.8040 H   0  0  0  0  0  0  0  0  0  0  0  0
  148.7532  136.7179   86.9271 H   0  0  0  0  0  0  0  0  0  0  0  0
  150.2892  137.0155   86.0454 H   0  0  0  0  0  0  0  0  0  0  0  0
  146.6202  138.6630   93.7670 H   0  0  0  0  0  0  0  0  0  0  0  0
  144.4887  139.4537   95.1064 H   0  0  0  0  0  0  0  0  0  0  0  0
  142.1265  140.2514   95.0149 H   0  0  0  0  0  0  0  0  0  0  0  0
  140.9848  140.5350   92.8051 H   0  0  0  0  0  0  0  0  0  0  0  0
  1  2  2  0
  2  3  1  0
  3  4  1  0
  4  5  1  0
  5  6  1  0
  6  7  1  0
  7  8  1  0
  8  9  1  0
  9 10  1  0
 10 11  1  0
  2 12  1  0
 12 13  2  0
 13 14  1  0
 14 15  2  0
 15 16  1  0
 16 17  2  0
 17 18  1  0
 18 19  1  0
 18 20  2  0
 20 21  1  0
  9  4  1  0
 21 12  1  0
 11  6  1  0
 20 14  1  0
  3 22  1  0
  4 23  1  1
  5 24  1  0
  5 25  1  0
  7 26  1  0
  7 27  1  0
  8 28  1  0
  8 29  1  0
  9 30  1  0
 10 31  1  0
 10 32  1  0
 11 33  1  0
 11 34  1  0
 13 35  1  0
 15 36  1  0
 16 37  1  0
 17 38  1  0
M  END
>  <meeko>  (18)
{"is_sidechain": false}

>  <source_group>  (18)
CHRFAM7A at B face

>  <source_system>  (18)
CHRNA7_encenicline

>  <source_run>  (18)
hybrid_B_face_seed4409_ex32

>  <source_seed>  (18)
4409

>  <vina_pose_rank>  (18)
18

>  <vina_affinity_kcal_mol>  (18)
-5.1050000000000004

>  <vina_rmsd_to_crystal_angstrom>  (18)
8.4147999999999996

$$$$
CHRNA7_encenicline__hybrid_B_face_seed4409_ex32__pose19
     RDKit          3D

 38 41  0  0  0  0  0  0  0  0999 V2000
  150.0140  134.9620   90.1230 O   0  0  0  0  0  0  0  0  0  0  0  0
  150.2010  136.1240   89.9910 C   0  0  0  0  0  0  0  0  0  0  0  0
  149.8990  136.7630   88.7250 N   0  0  0  0  0  0  0  0  0  0  0  0
  149.3630  135.9510   87.6090 C   0  0  1  0  0  0  0  0  0  0  0  0
  148.1170  136.6340   87.0130 C   0  0  0  0  0  0  0  0  0  0  0  0
  148.2900  136.9070   85.6540 N   0  0  0  0  0  0  0  0  0  0  0  0
  148.5550  135.7450   84.9620 C   0  0  0  0  0  0  0  0  0  0  0  0
  149.7980  135.0760   85.4690 C   0  0  0  0  0  0  0  0  0  0  0  0
  150.3650  135.8290   86.5530 C   0  0  0  0  0  0  0  0  0  0  0  0
  150.6850  137.1680   86.0670 C   0  0  0  0  0  0  0  0  0  0  0  0
  149.3680  137.8090   85.4830 C   0  0  0  0  0  0  0  0  0  0  0  0
  150.7560  136.9400   91.1640 C   0  0  0  0  0  0  0  0  0  0  0  0
  151.6210  136.4900   92.1020 C   0  0  0  0  0  0  0  0  0  0  0  0
  152.0560  137.3760   93.1440 C   0  0  0  0  0  0  0  0  0  0  0  0
  152.9240  137.0780   94.1610 C   0  0  0  0  0  0  0  0  0  0  0  0
  153.2530  138.0500   95.1060 C   0  0  0  0  0  0  0  0  0  0  0  0
  152.6930  139.3360   95.0150 C   0  0  0  0  0  0  0  0  0  0  0  0
  151.8070  139.6470   93.9790 C   0  0  0  0  0  0  0  0  0  0  0  0
  151.1020  141.2810   93.8680 Cl  0  0  0  0  0  0  0  0  0  0  0  0
  151.4820  138.6910   93.0470 C   0  0  0  0  0  0  0  0  0  0  0  0
  150.4240  138.6000   91.5710 S   0  0  0  0  0  0  0  0  0  0  0  0
  150.0490  137.7280   88.6080 H   0  0  0  0  0  0  0  0  0  0  0  0
  149.1009  134.9563   87.9988 H   0  0  0  0  0  0  0  0  0  0  0  0
  147.2496  135.9690   87.1375 H   0  0  0  0  0  0  0  0  0  0  0  0
  147.9563  137.5856   87.5409 H   0  0  0  0  0  0  0  0  0  0  0  0
  147.7050  135.0568   85.0798 H   0  0  0  0  0  0  0  0  0  0  0  0
  148.7074  136.0005   83.9030 H   0  0  0  0  0  0  0  0  0  0  0  0
  149.5472  134.0649   85.8222 H   0  0  0  0  0  0  0  0  0  0  0  0
  150.5318  135.0195   84.6514 H   0  0  0  0  0  0  0  0  0  0  0  0
  151.2676  135.3297   86.9351 H   0  0  0  0  0  0  0  0  0  0  0  0
  151.0630  137.7844   86.8960 H   0  0  0  0  0  0  0  0  0  0  0  0
  151.4589  137.1139   85.2872 H   0  0  0  0  0  0  0  0  0  0  0  0
  149.1495  138.7470   86.0144 H   0  0  0  0  0  0  0  0  0  0  0  0
  149.5052  138.0188   84.4119 H   0  0  0  0  0  0  0  0  0  0  0  0
  151.9879  135.4536   92.0663 H   0  0  0  0  0  0  0  0  0  0  0  0
  153.3619  136.0715   94.2326 H   0  0  0  0  0  0  0  0  0  0  0  0
  153.9505  137.8101   95.9221 H   0  0  0  0  0  0  0  0  0  0  0  0
  152.9528  140.1007   95.7618 H   0  0  0  0  0  0  0  0  0  0  0  0
  1  2  2  0
  2  3  1  0
  3  4  1  0
  4  5  1  0
  5  6  1  0
  6  7  1  0
  7  8  1  0
  8  9  1  0
  9 10  1  0
 10 11  1  0
  2 12  1  0
 12 13  2  0
 13 14  1  0
 14 15  2  0
 15 16  1  0
 16 17  2  0
 17 18  1  0
 18 19  1  0
 18 20  2  0
 20 21  1  0
  9  4  1  0
 21 12  1  0
 11  6  1  0
 20 14  1  0
  3 22  1  0
  4 23  1  1
  5 24  1  0
  5 25  1  0
  7 26  1  0
  7 27  1  0
  8 28  1  0
  8 29  1  0
  9 30  1  0
 10 31  1  0
 10 32  1  0
 11 33  1  0
 11 34  1  0
 13 35  1  0
 15 36  1  0
 16 37  1  0
 17 38  1  0
M  END
>  <meeko>  (19)
{"is_sidechain": false}

>  <source_group>  (19)
CHRFAM7A at B face

>  <source_system>  (19)
CHRNA7_encenicline

>  <source_run>  (19)
hybrid_B_face_seed4409_ex32

>  <source_seed>  (19)
4409

>  <vina_pose_rank>  (19)
19

>  <vina_affinity_kcal_mol>  (19)
-4.8780000000000001

>  <vina_rmsd_to_crystal_angstrom>  (19)
9.2757000000000005

$$$$
