CHRNA7_encenicline__hybrid_B_face_seed4409_ex32__pose01


 22 25  0  0  0  0  0  0  0  0999 V2000
  143.5890  139.3520   95.6970 O   0  0  0  0  0  0  0  0  0  0  0  0
  142.6440  139.7260   95.0900 C   0  0  0  0  0  0  0  0  0  0  0  0
  142.5600  139.4800   93.6640 N   0  0  0  0  0  0  0  0  0  0  0  0
  141.7770  139.7860   93.1520 H   0  0  0  0  0  0  0  0  0  0  0  0
  141.5180  140.4660   95.8210 C   0  0  0  0  0  0  0  0  0  0  0  0
  140.2330  140.0530   95.9170 C   0  0  0  0  0  0  0  0  0  0  0  0
  139.2860  140.8550   96.6390 C   0  0  0  0  0  0  0  0  0  0  0  0
  137.9580  140.5790   96.8290 C   0  0  0  0  0  0  0  0  0  0  0  0
  137.1590  141.4600   97.5570 C   0  0  0  0  0  0  0  0  0  0  0  0
  137.7160  142.6320   98.0960 C   0  0  0  0  0  0  0  0  0  0  0  0
  139.0710  142.9190   97.9070 C   0  0  0  0  0  0  0  0  0  0  0  0
  139.7730  144.4070   98.5960 Cl  0  0  0  0  0  0  0  0  0  0  0  0
  139.8610  142.0530   97.1900 C   0  0  0  0  0  0  0  0  0  0  0  0
  141.6050  141.9750   96.6830 S   0  0  0  0  0  0  0  0  0  0  0  0
  143.6630  138.7630   92.9830 C   0  0  0  0  0  0  0  0  0  0  0  0
  143.2610  138.4400   91.5300 C   0  0  0  0  0  0  0  0  0  0  0  0
  144.1580  139.0060   90.6190 N   0  0  0  0  0  0  0  0  0  0  0  0
  145.4350  138.5480   90.8570 C   0  0  0  0  0  0  0  0  0  0  0  0
  145.8910  138.8940   92.2440 C   0  0  0  0  0  0  0  0  0  0  0  0
  144.8590  139.6000   92.9500 C   0  0  0  0  0  0  0  0  0  0  0  0
  144.5460  140.8200   92.2100 C   0  0  0  0  0  0  0  0  0  0  0  0
  144.1360  140.4170   90.7430 C   0  0  0  0  0  0  0  0  0  0  0  0
  1  2  2  0
  2  3  1  0
  3 15  1  0
 15 16  1  0
 16 17  1  0
 17 18  1  0
 18 19  1  0
 19 20  1  0
 20 21  1  0
 21 22  1  0
  2  5  1  0
  5  6  2  0
  6  7  1  0
  7  8  2  0
  8  9  1  0
  9 10  2  0
 10 11  1  0
 11 12  1  0
 11 13  2  0
 13 14  1  0
 20 15  1  0
 14  5  1  0
 22 17  1  0
 13  7  1  0
  3  4  1  0
M  END
> <meeko>
{"is_sidechain": false}

> <source_group>
CHRFAM7A at B face

> <source_system>
CHRNA7_encenicline

> <source_run>
hybrid_B_face_seed4409_ex32

> <source_seed>
4409

> <vina_pose_rank>
1

> <vina_affinity_kcal_mol>
-6.9269999999999996

> <vina_rmsd_to_crystal_angstrom>
8.3847000000000005

> <minimizedAffinity>
-6.92899

> <CNNscore>
0.0657066926

> <CNNaffinity>
4.0312728882

> <CNN_VS>
0.2648816109

> <CNNaffinity_variance>
1.9272006750

$$$$
CHRNA7_encenicline__hybrid_B_face_seed4409_ex32__pose02


 22 25  0  0  0  0  0  0  0  0999 V2000
  143.7060  141.4400   95.4980 O   0  0  0  0  0  0  0  0  0  0  0  0
  142.6950  141.0370   95.0320 C   0  0  0  0  0  0  0  0  0  0  0  0
  142.7120  140.3490   93.7560 N   0  0  0  0  0  0  0  0  0  0  0  0
  141.8760  140.0100   93.3630 H   0  0  0  0  0  0  0  0  0  0  0  0
  141.3770  141.2460   95.7870 C   0  0  0  0  0  0  0  0  0  0  0  0
  141.0760  142.3030   96.5760 C   0  0  0  0  0  0  0  0  0  0  0  0
  139.7940  142.3610   97.2190 C   0  0  0  0  0  0  0  0  0  0  0  0
  139.3370  143.3570   98.0420 C   0  0  0  0  0  0  0  0  0  0  0  0
  138.0600  143.2720   98.5980 C   0  0  0  0  0  0  0  0  0  0  0  0
  137.2430  142.1640   98.3150 C   0  0  0  0  0  0  0  0  0  0  0  0
  137.7030  141.1450   97.4750 C   0  0  0  0  0  0  0  0  0  0  0  0
  136.6600  139.7440   97.1180 Cl  0  0  0  0  0  0  0  0  0  0  0  0
  138.9600  141.2260   96.9260 C   0  0  0  0  0  0  0  0  0  0  0  0
  139.9810  140.2070   95.8200 S   0  0  0  0  0  0  0  0  0  0  0  0
  143.9990  140.1610   93.0480 C   0  0  0  0  0  0  0  0  0  0  0  0
  144.6410  138.8250   93.4700 C   0  0  0  0  0  0  0  0  0  0  0  0
  144.8470  137.9920   92.3680 N   0  0  0  0  0  0  0  0  0  0  0  0
  145.6500  138.6160   91.4380 C   0  0  0  0  0  0  0  0  0  0  0  0
  145.0340  139.8940   90.9530 C   0  0  0  0  0  0  0  0  0  0  0  0
  143.7750  140.1230   91.6050 C   0  0  0  0  0  0  0  0  0  0  0  0
  142.8900  139.0000   91.3070 C   0  0  0  0  0  0  0  0  0  0  0  0
  143.6020  137.6730   91.7720 C   0  0  0  0  0  0  0  0  0  0  0  0
  1  2  2  0
  2  3  1  0
  3 15  1  0
 15 16  1  0
 16 17  1  0
 17 18  1  0
 18 19  1  0
 19 20  1  0
 20 21  1  0
 21 22  1  0
  2  5  1  0
  5  6  2  0
  6  7  1  0
  7  8  2  0
  8  9  1  0
  9 10  2  0
 10 11  1  0
 11 12  1  0
 11 13  2  0
 13 14  1  0
 20 15  1  0
 14  5  1  0
 22 17  1  0
 13  7  1  0
  3  4  1  0
M  END
> <meeko>
{"is_sidechain": false}

> <source_group>
CHRFAM7A at B face

> <source_system>
CHRNA7_encenicline

> <source_run>
hybrid_B_face_seed4409_ex32

> <source_seed>
4409

> <vina_pose_rank>
2

> <vina_affinity_kcal_mol>
-6.5860000000000003

> <vina_rmsd_to_crystal_angstrom>
8.6567000000000007

> <minimizedAffinity>
-6.37995

> <CNNscore>
0.1611812860

> <CNNaffinity>
4.6703114510

> <CNN_VS>
0.7527667880

> <CNNaffinity_variance>
1.2619305849

$$$$
CHRNA7_encenicline__hybrid_B_face_seed4409_ex32__pose03


 22 25  0  0  0  0  0  0  0  0999 V2000
  146.4920  144.6190   93.6540 O   0  0  0  0  0  0  0  0  0  0  0  0
  146.6110  143.6100   94.2610 C   0  0  0  0  0  0  0  0  0  0  0  0
  147.8960  143.2610   94.8340 N   0  0  0  0  0  0  0  0  0  0  0  0
  148.0020  142.4240   95.3430 H   0  0  0  0  0  0  0  0  0  0  0  0
  145.4010  142.6850   94.4380 C   0  0  0  0  0  0  0  0  0  0  0  0
  144.3460  142.9080   95.2550 C   0  0  0  0  0  0  0  0  0  0  0  0
  143.2820  141.9470   95.3120 C   0  0  0  0  0  0  0  0  0  0  0  0
  142.1510  142.0250   96.0810 C   0  0  0  0  0  0  0  0  0  0  0  0
  141.2000  141.0060   96.0310 C   0  0  0  0  0  0  0  0  0  0  0  0
  141.4030  139.8970   95.1910 C   0  0  0  0  0  0  0  0  0  0  0  0
  142.5550  139.8110   94.4030 C   0  0  0  0  0  0  0  0  0  0  0  0
  142.8050  138.4040   93.3380 Cl  0  0  0  0  0  0  0  0  0  0  0  0
  143.4930  140.8150   94.4510 C   0  0  0  0  0  0  0  0  0  0  0  0
  145.0900  141.1610   93.6560 S   0  0  0  0  0  0  0  0  0  0  0  0
  149.0480  144.1720   94.6490 C   0  0  0  0  0  0  0  0  0  0  0  0
  149.4550  144.7860   96.0030 C   0  0  0  0  0  0  0  0  0  0  0  0
  150.7850  144.4890   96.3140 N   0  0  0  0  0  0  0  0  0  0  0  0
  151.6240  144.9540   95.3260 C   0  0  0  0  0  0  0  0  0  0  0  0
  151.3010  144.3360   93.9980 C   0  0  0  0  0  0  0  0  0  0  0  0
  150.1910  143.4330   94.1210 C   0  0  0  0  0  0  0  0  0  0  0  0
  150.5480  142.3920   95.0810 C   0  0  0  0  0  0  0  0  0  0  0  0
  150.9420  143.0870   96.4400 C   0  0  0  0  0  0  0  0  0  0  0  0
  1  2  2  0
  2  3  1  0
  3 15  1  0
 15 16  1  0
 16 17  1  0
 17 18  1  0
 18 19  1  0
 19 20  1  0
 20 21  1  0
 21 22  1  0
  2  5  1  0
  5  6  2  0
  6  7  1  0
  7  8  2  0
  8  9  1  0
  9 10  2  0
 10 11  1  0
 11 12  1  0
 11 13  2  0
 13 14  1  0
 20 15  1  0
 14  5  1  0
 22 17  1  0
 13  7  1  0
  3  4  1  0
M  END
> <meeko>
{"is_sidechain": false}

> <source_group>
CHRFAM7A at B face

> <source_system>
CHRNA7_encenicline

> <source_run>
hybrid_B_face_seed4409_ex32

> <source_seed>
4409

> <vina_pose_rank>
3

> <vina_affinity_kcal_mol>
-6.0469999999999997

> <vina_rmsd_to_crystal_angstrom>
9.9244000000000003

> <minimizedAffinity>
-5.80970

> <CNNscore>
0.0565980375

> <CNNaffinity>
3.6260020733

> <CNN_VS>
0.2052246034

> <CNNaffinity_variance>
1.1980255842

$$$$
CHRNA7_encenicline__hybrid_B_face_seed4409_ex32__pose04


 22 25  0  0  0  0  0  0  0  0999 V2000
  140.9790  141.2090   89.1240 O   0  0  0  0  0  0  0  0  0  0  0  0
  141.5190  140.2120   88.7830 C   0  0  0  0  0  0  0  0  0  0  0  0
  142.5880  139.6590   89.5930 N   0  0  0  0  0  0  0  0  0  0  0  0
  143.0400  138.8290   89.3180 H   0  0  0  0  0  0  0  0  0  0  0  0
  141.0790  139.5150   87.4910 C   0  0  0  0  0  0  0  0  0  0  0  0
  141.7850  139.4660   86.3380 C   0  0  0  0  0  0  0  0  0  0  0  0
  141.2420  138.7700   85.2070 C   0  0  0  0  0  0  0  0  0  0  0  0
  141.8280  138.6280   83.9770 C   0  0  0  0  0  0  0  0  0  0  0  0
  141.1720  137.9210   82.9680 C   0  0  0  0  0  0  0  0  0  0  0  0
  139.9100  137.3550   83.2140 C   0  0  0  0  0  0  0  0  0  0  0  0
  139.3060  137.4960   84.4680 C   0  0  0  0  0  0  0  0  0  0  0  0
  137.7050  136.7740   84.7750 Cl  0  0  0  0  0  0  0  0  0  0  0  0
  139.9500  138.1920   85.4630 C   0  0  0  0  0  0  0  0  0  0  0  0
  139.6050  138.6390   87.1910 S   0  0  0  0  0  0  0  0  0  0  0  0
  142.9930  140.3520   90.8370 C   0  0  0  0  0  0  0  0  0  0  0  0
  142.2610  139.7350   92.0450 C   0  0  0  0  0  0  0  0  0  0  0  0
  143.1660  139.2460   92.9890 N   0  0  0  0  0  0  0  0  0  0  0  0
  144.0010  140.2540   93.4210 C   0  0  0  0  0  0  0  0  0  0  0  0
  144.7810  140.8440   92.2830 C   0  0  0  0  0  0  0  0  0  0  0  0
  144.4300  140.2010   91.0480 C   0  0  0  0  0  0  0  0  0  0  0  0
  144.7290  138.7760   91.1690 C   0  0  0  0  0  0  0  0  0  0  0  0
  143.9430  138.2100   92.4130 C   0  0  0  0  0  0  0  0  0  0  0  0
  1  2  2  0
  2  3  1  0
  3 15  1  0
 15 16  1  0
 16 17  1  0
 17 18  1  0
 18 19  1  0
 19 20  1  0
 20 21  1  0
 21 22  1  0
  2  5  1  0
  5  6  2  0
  6  7  1  0
  7  8  2  0
  8  9  1  0
  9 10  2  0
 10 11  1  0
 11 12  1  0
 11 13  2  0
 13 14  1  0
 20 15  1  0
 14  5  1  0
 22 17  1  0
 13  7  1  0
  3  4  1  0
M  END
> <meeko>
{"is_sidechain": false}

> <source_group>
CHRFAM7A at B face

> <source_system>
CHRNA7_encenicline

> <source_run>
hybrid_B_face_seed4409_ex32

> <source_seed>
4409

> <vina_pose_rank>
4

> <vina_affinity_kcal_mol>
-5.9189999999999996

> <vina_rmsd_to_crystal_angstrom>
7.3045999999999998

> <minimizedAffinity>
-5.67621

> <CNNscore>
0.1435479373

> <CNNaffinity>
4.3505949974

> <CNN_VS>
0.6245189309

> <CNNaffinity_variance>
1.5300983191

$$$$
CHRNA7_encenicline__hybrid_B_face_seed4409_ex32__pose05


 22 25  0  0  0  0  0  0  0  0999 V2000
  146.8830  144.2170   93.4900 O   0  0  0  0  0  0  0  0  0  0  0  0
  146.3850  143.9280   94.5250 C   0  0  0  0  0  0  0  0  0  0  0  0
  146.8090  144.5940   95.7410 N   0  0  0  0  0  0  0  0  0  0  0  0
  146.3970  144.3610   96.6040 H   0  0  0  0  0  0  0  0  0  0  0  0
  145.2920  142.8530   94.5650 C   0  0  0  0  0  0  0  0  0  0  0  0
  144.1780  142.8850   95.3330 C   0  0  0  0  0  0  0  0  0  0  0  0
  143.2400  141.8020   95.2610 C   0  0  0  0  0  0  0  0  0  0  0  0
  142.0720  141.6850   95.9660 C   0  0  0  0  0  0  0  0  0  0  0  0
  141.2580  140.5650   95.7900 C   0  0  0  0  0  0  0  0  0  0  0  0
  141.6380  139.5560   94.8880 C   0  0  0  0  0  0  0  0  0  0  0  0
  142.8290  139.6700   94.1640 C   0  0  0  0  0  0  0  0  0  0  0  0
  143.3050  138.3880   93.0200 Cl  0  0  0  0  0  0  0  0  0  0  0  0
  143.6320  140.7720   94.3360 C   0  0  0  0  0  0  0  0  0  0  0  0
  145.2120  141.3670   93.6620 S   0  0  0  0  0  0  0  0  0  0  0  0
  147.8660  145.6280   95.6730 C   0  0  0  0  0  0  0  0  0  0  0  0
  147.2270  147.0300   95.6060 C   0  0  0  0  0  0  0  0  0  0  0  0
  147.6490  147.8300   96.6700 N   0  0  0  0  0  0  0  0  0  0  0  0
  149.0210  147.9490   96.6660 C   0  0  0  0  0  0  0  0  0  0  0  0
  149.6870  146.6100   96.7920 C   0  0  0  0  0  0  0  0  0  0  0  0
  148.7030  145.5660   96.8680 C   0  0  0  0  0  0  0  0  0  0  0  0
  147.8590  145.8130   98.0340 C   0  0  0  0  0  0  0  0  0  0  0  0
  147.2330  147.2530   97.8950 C   0  0  0  0  0  0  0  0  0  0  0  0
  1  2  2  0
  2  3  1  0
  3 15  1  0
 15 16  1  0
 16 17  1  0
 17 18  1  0
 18 19  1  0
 19 20  1  0
 20 21  1  0
 21 22  1  0
  2  5  1  0
  5  6  2  0
  6  7  1  0
  7  8  2  0
  8  9  1  0
  9 10  2  0
 10 11  1  0
 11 12  1  0
 11 13  2  0
 13 14  1  0
 20 15  1  0
 14  5  1  0
 22 17  1  0
 13  7  1  0
  3  4  1  0
M  END
> <meeko>
{"is_sidechain": false}

> <source_group>
CHRFAM7A at B face

> <source_system>
CHRNA7_encenicline

> <source_run>
hybrid_B_face_seed4409_ex32

> <source_seed>
4409

> <vina_pose_rank>
5

> <vina_affinity_kcal_mol>
-5.8979999999999997

> <vina_rmsd_to_crystal_angstrom>
9.8596000000000004

> <minimizedAffinity>
-5.65466

> <CNNscore>
0.0723700821

> <CNNaffinity>
3.6172201633

> <CNN_VS>
0.2617785335

> <CNNaffinity_variance>
0.9627344012

$$$$
CHRNA7_encenicline__hybrid_B_face_seed4409_ex32__pose06


 22 25  0  0  0  0  0  0  0  0999 V2000
  146.0820  144.8390   96.0390 O   0  0  0  0  0  0  0  0  0  0  0  0
  146.1920  144.2190   95.0360 C   0  0  0  0  0  0  0  0  0  0  0  0
  147.1780  144.6140   94.0490 N   0  0  0  0  0  0  0  0  0  0  0  0
  147.2780  144.1030   93.2140 H   0  0  0  0  0  0  0  0  0  0  0  0
  145.2920  143.0020   94.7940 C   0  0  0  0  0  0  0  0  0  0  0  0
  145.5670  141.9650   93.9690 C   0  0  0  0  0  0  0  0  0  0  0  0
  144.6230  140.8910   93.8470 C   0  0  0  0  0  0  0  0  0  0  0  0
  144.7520  139.7760   93.0620 C   0  0  0  0  0  0  0  0  0  0  0  0
  143.7430  138.8120   93.0460 C   0  0  0  0  0  0  0  0  0  0  0  0
  142.5940  138.9860   93.8360 C   0  0  0  0  0  0  0  0  0  0  0  0
  142.4560  140.1220   94.6410 C   0  0  0  0  0  0  0  0  0  0  0  0
  140.9970  140.3350   95.6420 Cl  0  0  0  0  0  0  0  0  0  0  0  0
  143.4490  141.0720   94.6570 C   0  0  0  0  0  0  0  0  0  0  0  0
  143.7370  142.6590   95.4970 S   0  0  0  0  0  0  0  0  0  0  0  0
  148.0360  145.7930   94.3080 C   0  0  0  0  0  0  0  0  0  0  0  0
  149.3920  145.3410   94.8830 C   0  0  0  0  0  0  0  0  0  0  0  0
  150.4510  145.7680   94.0780 N   0  0  0  0  0  0  0  0  0  0  0  0
  150.4370  147.1400   93.9550 C   0  0  0  0  0  0  0  0  0  0  0  0
  149.1550  147.6210   93.3420 C   0  0  0  0  0  0  0  0  0  0  0  0
  148.2850  146.5130   93.0630 C   0  0  0  0  0  0  0  0  0  0  0  0
  148.9700  145.6110   92.1400 C   0  0  0  0  0  0  0  0  0  0  0  0
  150.3390  145.1820   92.7930 C   0  0  0  0  0  0  0  0  0  0  0  0
  1  2  2  0
  2  3  1  0
  3 15  1  0
 15 16  1  0
 16 17  1  0
 17 18  1  0
 18 19  1  0
 19 20  1  0
 20 21  1  0
 21 22  1  0
  2  5  1  0
  5  6  2  0
  6  7  1  0
  7  8  2  0
  8  9  1  0
  9 10  2  0
 10 11  1  0
 11 12  1  0
 11 13  2  0
 13 14  1  0
 20 15  1  0
 14  5  1  0
 22 17  1  0
 13  7  1  0
  3  4  1  0
M  END
> <meeko>
{"is_sidechain": false}

> <source_group>
CHRFAM7A at B face

> <source_system>
CHRNA7_encenicline

> <source_run>
hybrid_B_face_seed4409_ex32

> <source_seed>
4409

> <vina_pose_rank>
6

> <vina_affinity_kcal_mol>
-5.8529999999999998

> <vina_rmsd_to_crystal_angstrom>
9.3704000000000001

> <minimizedAffinity>
-5.60970

> <CNNscore>
0.0721567124

> <CNNaffinity>
3.5325763226

> <CNN_VS>
0.2548990846

> <CNNaffinity_variance>
1.6166840792

$$$$
CHRNA7_encenicline__hybrid_B_face_seed4409_ex32__pose07


 22 25  0  0  0  0  0  0  0  0999 V2000
  147.5430  138.5300   90.1390 O   0  0  0  0  0  0  0  0  0  0  0  0
  147.7600  138.3120   91.2820 C   0  0  0  0  0  0  0  0  0  0  0  0
  146.6730  138.3400   92.2410 N   0  0  0  0  0  0  0  0  0  0  0  0
  146.8440  138.1570   93.1920 H   0  0  0  0  0  0  0  0  0  0  0  0
  149.1900  137.9980   91.7360 C   0  0  0  0  0  0  0  0  0  0  0  0
  149.8960  138.6860   92.6620 C   0  0  0  0  0  0  0  0  0  0  0  0
  151.2310  138.2700   92.9860 C   0  0  0  0  0  0  0  0  0  0  0  0
  152.0710  138.8540   93.8960 C   0  0  0  0  0  0  0  0  0  0  0  0
  153.3490  138.3340   94.1020 C   0  0  0  0  0  0  0  0  0  0  0  0
  153.7750  137.2090   93.3740 C   0  0  0  0  0  0  0  0  0  0  0  0
  152.9220  136.6080   92.4440 C   0  0  0  0  0  0  0  0  0  0  0  0
  153.4670  135.1800   91.5260 Cl  0  0  0  0  0  0  0  0  0  0  0  0
  151.6630  137.1190   92.2400 C   0  0  0  0  0  0  0  0  0  0  0  0
  150.2350  136.7170   91.1890 S   0  0  0  0  0  0  0  0  0  0  0  0
  145.3000  138.6460   91.7760 C   0  0  0  0  0  0  0  0  0  0  0  0
  144.2730  137.8670   92.6210 C   0  0  0  0  0  0  0  0  0  0  0  0
  143.3760  138.7330   93.2520 N   0  0  0  0  0  0  0  0  0  0  0  0
  142.7170  139.5030   92.3190 C   0  0  0  0  0  0  0  0  0  0  0  0
  143.6760  140.3260   91.5120 C   0  0  0  0  0  0  0  0  0  0  0  0
  145.0270  140.0720   91.9270 C   0  0  0  0  0  0  0  0  0  0  0  0
  145.1460  140.4150   93.3420 C   0  0  0  0  0  0  0  0  0  0  0  0
  144.0790  139.5790   94.1450 C   0  0  0  0  0  0  0  0  0  0  0  0
  1  2  2  0
  2  3  1  0
  3 15  1  0
 15 16  1  0
 16 17  1  0
 17 18  1  0
 18 19  1  0
 19 20  1  0
 20 21  1  0
 21 22  1  0
  2  5  1  0
  5  6  2  0
  6  7  1  0
  7  8  2  0
  8  9  1  0
  9 10  2  0
 10 11  1  0
 11 12  1  0
 11 13  2  0
 13 14  1  0
 20 15  1  0
 14  5  1  0
 22 17  1  0
 13  7  1  0
  3  4  1  0
M  END
> <meeko>
{"is_sidechain": false}

> <source_group>
CHRFAM7A at B face

> <source_system>
CHRNA7_encenicline

> <source_run>
hybrid_B_face_seed4409_ex32

> <source_seed>
4409

> <vina_pose_rank>
7

> <vina_affinity_kcal_mol>
-5.7960000000000003

> <vina_rmsd_to_crystal_angstrom>
6.4503000000000004

> <minimizedAffinity>
-5.54357

> <CNNscore>
0.0778808817

> <CNNaffinity>
3.9510643482

> <CNN_VS>
0.3077123761

> <CNNaffinity_variance>
1.1354640722

$$$$
CHRNA7_encenicline__hybrid_B_face_seed4409_ex32__pose08


 22 25  0  0  0  0  0  0  0  0999 V2000
  146.0230  145.2450   94.4440 O   0  0  0  0  0  0  0  0  0  0  0  0
  146.3190  144.1120   94.6220 C   0  0  0  0  0  0  0  0  0  0  0  0
  147.7160  143.7390   94.7250 N   0  0  0  0  0  0  0  0  0  0  0  0
  147.9700  142.8000   94.8750 H   0  0  0  0  0  0  0  0  0  0  0  0
  145.2180  143.0520   94.7440 C   0  0  0  0  0  0  0  0  0  0  0  0
  145.1470  141.9000   94.0380 C   0  0  0  0  0  0  0  0  0  0  0  0
  144.0530  141.0000   94.2650 C   0  0  0  0  0  0  0  0  0  0  0  0
  143.8370  139.8010   93.6380 C   0  0  0  0  0  0  0  0  0  0  0  0
  142.7200  139.0320   93.9660 C   0  0  0  0  0  0  0  0  0  0  0  0
  141.8150  139.4870   94.9400 C   0  0  0  0  0  0  0  0  0  0  0  0
  142.0290  140.7100   95.5840 C   0  0  0  0  0  0  0  0  0  0  0  0
  140.8790  141.2810   96.8200 Cl  0  0  0  0  0  0  0  0  0  0  0  0
  143.1290  141.4690   95.2620 C   0  0  0  0  0  0  0  0  0  0  0  0
  143.8270  143.0620   95.7900 S   0  0  0  0  0  0  0  0  0  0  0  0
  148.7590  144.7830   94.6030 C   0  0  0  0  0  0  0  0  0  0  0  0
  149.4100  145.0390   95.9760 C   0  0  0  0  0  0  0  0  0  0  0  0
  150.7880  144.8100   95.9340 N   0  0  0  0  0  0  0  0  0  0  0  0
  151.3790  145.6160   94.9860 C   0  0  0  0  0  0  0  0  0  0  0  0
  150.8170  145.3580   93.6200 C   0  0  0  0  0  0  0  0  0  0  0  0
  149.8010  144.3440   93.6790 C   0  0  0  0  0  0  0  0  0  0  0  0
  150.4000  143.1220   94.2100 C   0  0  0  0  0  0  0  0  0  0  0  0
  151.0350  143.4530   95.6140 C   0  0  0  0  0  0  0  0  0  0  0  0
  1  2  2  0
  2  3  1  0
  3 15  1  0
 15 16  1  0
 16 17  1  0
 17 18  1  0
 18 19  1  0
 19 20  1  0
 20 21  1  0
 21 22  1  0
  2  5  1  0
  5  6  2  0
  6  7  1  0
  7  8  2  0
  8  9  1  0
  9 10  2  0
 10 11  1  0
 11 12  1  0
 11 13  2  0
 13 14  1  0
 20 15  1  0
 14  5  1  0
 22 17  1  0
 13  7  1  0
  3  4  1  0
M  END
> <meeko>
{"is_sidechain": false}

> <source_group>
CHRFAM7A at B face

> <source_system>
CHRNA7_encenicline

> <source_run>
hybrid_B_face_seed4409_ex32

> <source_seed>
4409

> <vina_pose_rank>
8

> <vina_affinity_kcal_mol>
-5.7919999999999998

> <vina_rmsd_to_crystal_angstrom>
9.8876000000000008

> <minimizedAffinity>
-5.54301

> <CNNscore>
0.0631825253

> <CNNaffinity>
3.4390480518

> <CNN_VS>
0.2172877342

> <CNNaffinity_variance>
1.3039144278

$$$$
CHRNA7_encenicline__hybrid_B_face_seed4409_ex32__pose09


 22 25  0  0  0  0  0  0  0  0999 V2000
  146.3060  138.7060   90.4560 O   0  0  0  0  0  0  0  0  0  0  0  0
  146.5660  138.7240   91.6110 C   0  0  0  0  0  0  0  0  0  0  0  0
  147.8380  138.2030   92.0710 N   0  0  0  0  0  0  0  0  0  0  0  0
  148.0630  138.2160   93.0290 H   0  0  0  0  0  0  0  0  0  0  0  0
  145.5540  139.3010   92.6070 C   0  0  0  0  0  0  0  0  0  0  0  0
  144.3830  138.7260   92.9680 C   0  0  0  0  0  0  0  0  0  0  0  0
  143.5360  139.3890   93.9190 C   0  0  0  0  0  0  0  0  0  0  0  0
  142.3290  138.9420   94.3880 C   0  0  0  0  0  0  0  0  0  0  0  0
  141.6150  139.7020   95.3150 C   0  0  0  0  0  0  0  0  0  0  0  0
  142.1350  140.9260   95.7680 C   0  0  0  0  0  0  0  0  0  0  0  0
  143.3670  141.3880   95.2940 C   0  0  0  0  0  0  0  0  0  0  0  0
  144.0220  142.9410   95.8750 Cl  0  0  0  0  0  0  0  0  0  0  0  0
  144.0710  140.6410   94.3810 C   0  0  0  0  0  0  0  0  0  0  0  0
  145.6520  140.7950   93.4950 S   0  0  0  0  0  0  0  0  0  0  0  0
  148.7980  137.6510   91.0880 C   0  0  0  0  0  0  0  0  0  0  0  0
  149.7320  138.7680   90.5810 C   0  0  0  0  0  0  0  0  0  0  0  0
  151.0710  138.4620   90.8360 N   0  0  0  0  0  0  0  0  0  0  0  0
  151.4130  137.2690   90.2390 C   0  0  0  0  0  0  0  0  0  0  0  0
  150.5670  136.1390   90.7490 C   0  0  0  0  0  0  0  0  0  0  0  0
  149.6190  136.6190   91.7150 C   0  0  0  0  0  0  0  0  0  0  0  0
  150.3550  137.2270   92.8200 C   0  0  0  0  0  0  0  0  0  0  0  0
  151.2790  138.3620   92.2340 C   0  0  0  0  0  0  0  0  0  0  0  0
  1  2  2  0
  2  3  1  0
  3 15  1  0
 15 16  1  0
 16 17  1  0
 17 18  1  0
 18 19  1  0
 19 20  1  0
 20 21  1  0
 21 22  1  0
  2  5  1  0
  5  6  2  0
  6  7  1  0
  7  8  2  0
  8  9  1  0
  9 10  2  0
 10 11  1  0
 11 12  1  0
 11 13  2  0
 13 14  1  0
 20 15  1  0
 14  5  1  0
 22 17  1  0
 13  7  1  0
  3  4  1  0
M  END
> <meeko>
{"is_sidechain": false}

> <source_group>
CHRFAM7A at B face

> <source_system>
CHRNA7_encenicline

> <source_run>
hybrid_B_face_seed4409_ex32

> <source_seed>
4409

> <vina_pose_rank>
9

> <vina_affinity_kcal_mol>
-5.7539999999999996

> <vina_rmsd_to_crystal_angstrom>
8.5790000000000006

> <minimizedAffinity>
-5.55266

> <CNNscore>
0.1889009178

> <CNNaffinity>
4.4649882317

> <CNN_VS>
0.8434403539

> <CNNaffinity_variance>
0.3423896730

$$$$
CHRNA7_encenicline__hybrid_B_face_seed4409_ex32__pose10


 22 25  0  0  0  0  0  0  0  0999 V2000
  146.7930  144.4200   93.4200 O   0  0  0  0  0  0  0  0  0  0  0  0
  146.4390  144.0530   94.4890 C   0  0  0  0  0  0  0  0  0  0  0  0
  147.0430  144.6170   95.6810 N   0  0  0  0  0  0  0  0  0  0  0  0
  146.7520  144.3190   96.5720 H   0  0  0  0  0  0  0  0  0  0  0  0
  145.3420  142.9880   94.6000 C   0  0  0  0  0  0  0  0  0  0  0  0
  145.2820  141.8370   93.8900 C   0  0  0  0  0  0  0  0  0  0  0  0
  144.1900  140.9320   94.1060 C   0  0  0  0  0  0  0  0  0  0  0  0
  143.9850  139.7330   93.4750 C   0  0  0  0  0  0  0  0  0  0  0  0
  142.8690  138.9590   93.7910 C   0  0  0  0  0  0  0  0  0  0  0  0
  141.9530  139.4080   94.7580 C   0  0  0  0  0  0  0  0  0  0  0  0
  142.1560  140.6300   95.4060 C   0  0  0  0  0  0  0  0  0  0  0  0
  140.9920  141.1940   96.6340 Cl  0  0  0  0  0  0  0  0  0  0  0  0
  143.2550  141.3950   95.0960 C   0  0  0  0  0  0  0  0  0  0  0  0
  143.9420  142.9900   95.6330 S   0  0  0  0  0  0  0  0  0  0  0  0
  148.1000  145.6440   95.5450 C   0  0  0  0  0  0  0  0  0  0  0  0
  147.4880  147.0510   95.6940 C   0  0  0  0  0  0  0  0  0  0  0  0
  148.0790  147.7520   96.7480 N   0  0  0  0  0  0  0  0  0  0  0  0
  149.4390  147.8590   96.5490 C   0  0  0  0  0  0  0  0  0  0  0  0
  150.0870  146.5090   96.4590 C   0  0  0  0  0  0  0  0  0  0  0  0
  149.1030  145.4710   96.5910 C   0  0  0  0  0  0  0  0  0  0  0  0
  148.4460  145.6210   97.8870 C   0  0  0  0  0  0  0  0  0  0  0  0
  147.8370  147.0720   97.9670 C   0  0  0  0  0  0  0  0  0  0  0  0
  1  2  2  0
  2  3  1  0
  3 15  1  0
 15 16  1  0
 16 17  1  0
 17 18  1  0
 18 19  1  0
 19 20  1  0
 20 21  1  0
 21 22  1  0
  2  5  1  0
  5  6  2  0
  6  7  1  0
  7  8  2  0
  8  9  1  0
  9 10  2  0
 10 11  1  0
 11 12  1  0
 11 13  2  0
 13 14  1  0
 20 15  1  0
 14  5  1  0
 22 17  1  0
 13  7  1  0
  3  4  1  0
M  END
> <meeko>
{"is_sidechain": false}

> <source_group>
CHRFAM7A at B face

> <source_system>
CHRNA7_encenicline

> <source_run>
hybrid_B_face_seed4409_ex32

> <source_seed>
4409

> <vina_pose_rank>
10

> <vina_affinity_kcal_mol>
-5.7249999999999996

> <vina_rmsd_to_crystal_angstrom>
10.002700000000001

> <minimizedAffinity>
-5.50040

> <CNNscore>
0.0745255277

> <CNNaffinity>
3.2892582417

> <CNN_VS>
0.2451337129

> <CNNaffinity_variance>
1.4594830275

$$$$
CHRNA7_encenicline__hybrid_B_face_seed4409_ex32__pose11


 22 25  0  0  0  0  0  0  0  0999 V2000
  146.0040  145.2450   95.7710 O   0  0  0  0  0  0  0  0  0  0  0  0
  146.1570  144.4660   94.8920 C   0  0  0  0  0  0  0  0  0  0  0  0
  147.2010  144.6830   93.9100 N   0  0  0  0  0  0  0  0  0  0  0  0
  147.3360  144.0380   93.1790 H   0  0  0  0  0  0  0  0  0  0  0  0
  145.2480  143.2340   94.8060 C   0  0  0  0  0  0  0  0  0  0  0  0
  144.0670  143.0760   95.4460 C   0  0  0  0  0  0  0  0  0  0  0  0
  143.3240  141.8610   95.2650 C   0  0  0  0  0  0  0  0  0  0  0  0
  142.1180  141.5480   95.8360 C   0  0  0  0  0  0  0  0  0  0  0  0
  141.5150  140.3200   95.5640 C   0  0  0  0  0  0  0  0  0  0  0  0
  142.1440  139.4030   94.7050 C   0  0  0  0  0  0  0  0  0  0  0  0
  143.3740  139.7170   94.1180 C   0  0  0  0  0  0  0  0  0  0  0  0
  144.1660  138.5510   93.0260 Cl  0  0  0  0  0  0  0  0  0  0  0  0
  143.9700  140.9260   94.3840 C   0  0  0  0  0  0  0  0  0  0  0  0
  145.5010  141.7750   93.8920 S   0  0  0  0  0  0  0  0  0  0  0  0
  148.0640  145.8810   94.0170 C   0  0  0  0  0  0  0  0  0  0  0  0
  149.3300  145.5460   94.8320 C   0  0  0  0  0  0  0  0  0  0  0  0
  150.4880  145.7820   94.0870 N   0  0  0  0  0  0  0  0  0  0  0  0
  150.5370  147.0970   93.6790 C   0  0  0  0  0  0  0  0  0  0  0  0
  149.3510  147.4510   92.8310 C   0  0  0  0  0  0  0  0  0  0  0  0
  148.4810  146.3180   92.6880 C   0  0  0  0  0  0  0  0  0  0  0  0
  149.2340  145.2340   92.0630 C   0  0  0  0  0  0  0  0  0  0  0  0
  150.5030  144.9380   92.9490 C   0  0  0  0  0  0  0  0  0  0  0  0
  1  2  2  0
  2  3  1  0
  3 15  1  0
 15 16  1  0
 16 17  1  0
 17 18  1  0
 18 19  1  0
 19 20  1  0
 20 21  1  0
 21 22  1  0
  2  5  1  0
  5  6  2  0
  6  7  1  0
  7  8  2  0
  8  9  1  0
  9 10  2  0
 10 11  1  0
 11 12  1  0
 11 13  2  0
 13 14  1  0
 20 15  1  0
 14  5  1  0
 22 17  1  0
 13  7  1  0
  3  4  1  0
M  END
> <meeko>
{"is_sidechain": false}

> <source_group>
CHRFAM7A at B face

> <source_system>
CHRNA7_encenicline

> <source_run>
hybrid_B_face_seed4409_ex32

> <source_seed>
4409

> <vina_pose_rank>
11

> <vina_affinity_kcal_mol>
-5.6769999999999996

> <vina_rmsd_to_crystal_angstrom>
9.4411000000000005

> <minimizedAffinity>
-5.46588

> <CNNscore>
0.0708043873

> <CNNaffinity>
3.6343991756

> <CNN_VS>
0.2573314011

> <CNNaffinity_variance>
1.1808727980

$$$$
CHRNA7_encenicline__hybrid_B_face_seed4409_ex32__pose12


 22 25  0  0  0  0  0  0  0  0999 V2000
  148.5000  137.6410   92.2860 O   0  0  0  0  0  0  0  0  0  0  0  0
  147.9580  138.1220   91.3490 C   0  0  0  0  0  0  0  0  0  0  0  0
  148.6650  138.2390   90.0890 N   0  0  0  0  0  0  0  0  0  0  0  0
  148.2210  138.6350   89.3050 H   0  0  0  0  0  0  0  0  0  0  0  0
  146.5120  138.6130   91.4800 C   0  0  0  0  0  0  0  0  0  0  0  0
  145.7080  138.9880   90.4590 C   0  0  0  0  0  0  0  0  0  0  0  0
  144.3700  139.4250   90.7370 C   0  0  0  0  0  0  0  0  0  0  0  0
  143.4360  139.8340   89.8220 C   0  0  0  0  0  0  0  0  0  0  0  0
  142.1690  140.2340   90.2470 C   0  0  0  0  0  0  0  0  0  0  0  0
  141.8500  140.2190   91.6160 C   0  0  0  0  0  0  0  0  0  0  0  0
  142.7980  139.8020   92.5550 C   0  0  0  0  0  0  0  0  0  0  0  0
  142.3870  139.7830   94.2900 Cl  0  0  0  0  0  0  0  0  0  0  0  0
  144.0470  139.4070   92.1390 C   0  0  0  0  0  0  0  0  0  0  0  0
  145.5690  138.8050   92.9310 S   0  0  0  0  0  0  0  0  0  0  0  0
  150.0620  137.7560   89.9900 C   0  0  0  0  0  0  0  0  0  0  0  0
  150.0890  136.3560   89.3470 C   0  0  0  0  0  0  0  0  0  0  0  0
  150.8660  136.3470   88.1850 N   0  0  0  0  0  0  0  0  0  0  0  0
  152.1520  136.7520   88.4650 C   0  0  0  0  0  0  0  0  0  0  0  0
  152.1780  138.1380   89.0390 C   0  0  0  0  0  0  0  0  0  0  0  0
  150.8440  138.6590   89.1510 C   0  0  0  0  0  0  0  0  0  0  0  0
  150.2450  138.6830   87.8190 C   0  0  0  0  0  0  0  0  0  0  0  0
  150.2980  137.2230   87.2270 C   0  0  0  0  0  0  0  0  0  0  0  0
  1  2  2  0
  2  3  1  0
  3 15  1  0
 15 16  1  0
 16 17  1  0
 17 18  1  0
 18 19  1  0
 19 20  1  0
 20 21  1  0
 21 22  1  0
  2  5  1  0
  5  6  2  0
  6  7  1  0
  7  8  2  0
  8  9  1  0
  9 10  2  0
 10 11  1  0
 11 12  1  0
 11 13  2  0
 13 14  1  0
 20 15  1  0
 14  5  1  0
 22 17  1  0
 13  7  1  0
  3  4  1  0
M  END
> <meeko>
{"is_sidechain": false}

> <source_group>
CHRFAM7A at B face

> <source_system>
CHRNA7_encenicline

> <source_run>
hybrid_B_face_seed4409_ex32

> <source_seed>
4409

> <vina_pose_rank>
12

> <vina_affinity_kcal_mol>
-5.5460000000000003

> <vina_rmsd_to_crystal_angstrom>
8.5672999999999995

> <minimizedAffinity>
-5.29567

> <CNNscore>
0.2553706169

> <CNNaffinity>
5.0425887108

> <CNN_VS>
1.2877290249

> <CNNaffinity_variance>
0.2746387422

$$$$
CHRNA7_encenicline__hybrid_B_face_seed4409_ex32__pose13


 22 25  0  0  0  0  0  0  0  0999 V2000
  151.5600  136.3430   87.3800 O   0  0  0  0  0  0  0  0  0  0  0  0
  150.8030  136.2320   88.2840 C   0  0  0  0  0  0  0  0  0  0  0  0
  149.4980  135.6410   88.0620 N   0  0  0  0  0  0  0  0  0  0  0  0
  148.8640  135.5430   88.8080 H   0  0  0  0  0  0  0  0  0  0  0  0
  151.2130  136.7120   89.6810 C   0  0  0  0  0  0  0  0  0  0  0  0
  152.2120  136.1950   90.4330 C   0  0  0  0  0  0  0  0  0  0  0  0
  152.4820  136.7530   91.7280 C   0  0  0  0  0  0  0  0  0  0  0  0
  153.4510  136.3480   92.6060 C   0  0  0  0  0  0  0  0  0  0  0  0
  153.5920  136.9910   93.8360 C   0  0  0  0  0  0  0  0  0  0  0  0
  152.7390  138.0560   94.1740 C   0  0  0  0  0  0  0  0  0  0  0  0
  151.7480  138.4750   93.2810 C   0  0  0  0  0  0  0  0  0  0  0  0
  150.6700  139.8270   93.7150 Cl  0  0  0  0  0  0  0  0  0  0  0  0
  151.6070  137.8430   92.0690 C   0  0  0  0  0  0  0  0  0  0  0  0
  150.5200  138.0030   90.6210 S   0  0  0  0  0  0  0  0  0  0  0  0
  149.1270  135.1850   86.7020 C   0  0  0  0  0  0  0  0  0  0  0  0
  148.0320  134.1040   86.7910 C   0  0  0  0  0  0  0  0  0  0  0  0
  146.8850  134.4860   86.0910 N   0  0  0  0  0  0  0  0  0  0  0  0
  147.1880  134.7280   84.7690 C   0  0  0  0  0  0  0  0  0  0  0  0
  148.2080  135.8190   84.6320 C   0  0  0  0  0  0  0  0  0  0  0  0
  148.6000  136.3040   85.9260 C   0  0  0  0  0  0  0  0  0  0  0  0
  147.4130  136.8160   86.6060 C   0  0  0  0  0  0  0  0  0  0  0  0
  146.3430  135.6600   86.6700 C   0  0  0  0  0  0  0  0  0  0  0  0
  1  2  2  0
  2  3  1  0
  3 15  1  0
 15 16  1  0
 16 17  1  0
 17 18  1  0
 18 19  1  0
 19 20  1  0
 20 21  1  0
 21 22  1  0
  2  5  1  0
  5  6  2  0
  6  7  1  0
  7  8  2  0
  8  9  1  0
  9 10  2  0
 10 11  1  0
 11 12  1  0
 11 13  2  0
 13 14  1  0
 20 15  1  0
 14  5  1  0
 22 17  1  0
 13  7  1  0
  3  4  1  0
M  END
> <meeko>
{"is_sidechain": false}

> <source_group>
CHRFAM7A at B face

> <source_system>
CHRNA7_encenicline

> <source_run>
hybrid_B_face_seed4409_ex32

> <source_seed>
4409

> <vina_pose_rank>
13

> <vina_affinity_kcal_mol>
-5.5119999999999996

> <vina_rmsd_to_crystal_angstrom>
8.8289000000000009

> <minimizedAffinity>
-5.33891

> <CNNscore>
0.1020514145

> <CNNaffinity>
4.2227244377

> <CNN_VS>
0.4309349954

> <CNNaffinity_variance>
1.1207863092

$$$$
CHRNA7_encenicline__hybrid_B_face_seed4409_ex32__pose14


 22 25  0  0  0  0  0  0  0  0999 V2000
  139.8300  140.9500   87.7370 O   0  0  0  0  0  0  0  0  0  0  0  0
  140.7380  140.1920   87.8030 C   0  0  0  0  0  0  0  0  0  0  0  0
  141.0750  139.3710   86.6560 N   0  0  0  0  0  0  0  0  0  0  0  0
  141.8290  138.7400   86.7020 H   0  0  0  0  0  0  0  0  0  0  0  0
  141.5490  140.0910   89.1000 C   0  0  0  0  0  0  0  0  0  0  0  0
  142.8590  139.7640   89.1900 C   0  0  0  0  0  0  0  0  0  0  0  0
  143.4850  139.7110   90.4800 C   0  0  0  0  0  0  0  0  0  0  0  0
  144.7940  139.4010   90.7410 C   0  0  0  0  0  0  0  0  0  0  0  0
  145.2610  139.3900   92.0560 C   0  0  0  0  0  0  0  0  0  0  0  0
  144.3880  139.6960   93.1140 C   0  0  0  0  0  0  0  0  0  0  0  0
  143.0510  140.0150   92.8540 C   0  0  0  0  0  0  0  0  0  0  0  0
  141.9490  140.4050   94.2000 Cl  0  0  0  0  0  0  0  0  0  0  0  0
  142.5890  140.0260   91.5600 C   0  0  0  0  0  0  0  0  0  0  0  0
  141.0060  140.3610   90.7310 S   0  0  0  0  0  0  0  0  0  0  0  0
  140.2750  139.4890   85.4160 C   0  0  0  0  0  0  0  0  0  0  0  0
  141.2060  139.7280   84.2110 C   0  0  0  0  0  0  0  0  0  0  0  0
  141.0520  138.7290   83.2460 N   0  0  0  0  0  0  0  0  0  0  0  0
  139.7440  138.6770   82.8150 C   0  0  0  0  0  0  0  0  0  0  0  0
  138.8050  138.3850   83.9480 C   0  0  0  0  0  0  0  0  0  0  0  0
  139.5320  138.2540   85.1800 C   0  0  0  0  0  0  0  0  0  0  0  0
  140.4910  137.1620   85.0350 C   0  0  0  0  0  0  0  0  0  0  0  0
  141.4130  137.4750   83.7960 C   0  0  0  0  0  0  0  0  0  0  0  0
  1  2  2  0
  2  3  1  0
  3 15  1  0
 15 16  1  0
 16 17  1  0
 17 18  1  0
 18 19  1  0
 19 20  1  0
 20 21  1  0
 21 22  1  0
  2  5  1  0
  5  6  2  0
  6  7  1  0
  7  8  2  0
  8  9  1  0
  9 10  2  0
 10 11  1  0
 11 12  1  0
 11 13  2  0
 13 14  1  0
 20 15  1  0
 14  5  1  0
 22 17  1  0
 13  7  1  0
  3  4  1  0
M  END
> <meeko>
{"is_sidechain": false}

> <source_group>
CHRFAM7A at B face

> <source_system>
CHRNA7_encenicline

> <source_run>
hybrid_B_face_seed4409_ex32

> <source_seed>
4409

> <vina_pose_rank>
14

> <vina_affinity_kcal_mol>
-5.3819999999999997

> <vina_rmsd_to_crystal_angstrom>
5.1573000000000002

> <minimizedAffinity>
-5.11870

> <CNNscore>
0.1181757078

> <CNNaffinity>
4.8733096123

> <CNN_VS>
0.5759068131

> <CNNaffinity_variance>
1.0848518610

$$$$
CHRNA7_encenicline__hybrid_B_face_seed4409_ex32__pose15


 22 25  0  0  0  0  0  0  0  0999 V2000
  147.9800  138.4340   89.4850 O   0  0  0  0  0  0  0  0  0  0  0  0
  147.7450  138.2650   90.6330 C   0  0  0  0  0  0  0  0  0  0  0  0
  148.7360  137.6380   91.4870 N   0  0  0  0  0  0  0  0  0  0  0  0
  148.5490  137.4960   92.4420 H   0  0  0  0  0  0  0  0  0  0  0  0
  146.3960  138.7140   91.2050 C   0  0  0  0  0  0  0  0  0  0  0  0
  146.1110  138.8900   92.5160 C   0  0  0  0  0  0  0  0  0  0  0  0
  144.7970  139.3180   92.9020 C   0  0  0  0  0  0  0  0  0  0  0  0
  144.3520  139.5420   94.1780 C   0  0  0  0  0  0  0  0  0  0  0  0
  143.0380  139.9570   94.3970 C   0  0  0  0  0  0  0  0  0  0  0  0
  142.1700  140.1450   93.3080 C   0  0  0  0  0  0  0  0  0  0  0  0
  142.6180  139.9190   92.0030 C   0  0  0  0  0  0  0  0  0  0  0  0
  141.5120  140.1610   90.6250 Cl  0  0  0  0  0  0  0  0  0  0  0  0
  143.9120  139.5100   91.7850 C   0  0  0  0  0  0  0  0  0  0  0  0
  144.9350  139.0980   90.3400 S   0  0  0  0  0  0  0  0  0  0  0  0
  150.0310  137.2140   90.9080 C   0  0  0  0  0  0  0  0  0  0  0  0
  151.0860  138.3190   91.1150 C   0  0  0  0  0  0  0  0  0  0  0  0
  152.1820  137.8430   91.8400 N   0  0  0  0  0  0  0  0  0  0  0  0
  152.7570  136.7720   91.1910 C   0  0  0  0  0  0  0  0  0  0  0  0
  151.7800  135.6460   91.0210 C   0  0  0  0  0  0  0  0  0  0  0  0
  150.5030  136.0030   91.5730 C   0  0  0  0  0  0  0  0  0  0  0  0
  150.6800  136.2970   92.9930 C   0  0  0  0  0  0  0  0  0  0  0  0
  151.7610  137.4370   93.1300 C   0  0  0  0  0  0  0  0  0  0  0  0
  1  2  2  0
  2  3  1  0
  3 15  1  0
 15 16  1  0
 16 17  1  0
 17 18  1  0
 18 19  1  0
 19 20  1  0
 20 21  1  0
 21 22  1  0
  2  5  1  0
  5  6  2  0
  6  7  1  0
  7  8  2  0
  8  9  1  0
  9 10  2  0
 10 11  1  0
 11 12  1  0
 11 13  2  0
 13 14  1  0
 20 15  1  0
 14  5  1  0
 22 17  1  0
 13  7  1  0
  3  4  1  0
M  END
> <meeko>
{"is_sidechain": false}

> <source_group>
CHRFAM7A at B face

> <source_system>
CHRNA7_encenicline

> <source_run>
hybrid_B_face_seed4409_ex32

> <source_seed>
4409

> <vina_pose_rank>
15

> <vina_affinity_kcal_mol>
-5.2539999999999996

> <vina_rmsd_to_crystal_angstrom>
9.0349000000000004

> <minimizedAffinity>
-5.01306

> <CNNscore>
0.3660620451

> <CNNaffinity>
4.5522542000

> <CNN_VS>
1.6664074659

> <CNNaffinity_variance>
0.5435931683

$$$$
CHRNA7_encenicline__hybrid_B_face_seed4409_ex32__pose16


 22 25  0  0  0  0  0  0  0  0999 V2000
  144.6670  145.0560   98.5290 O   0  0  0  0  0  0  0  0  0  0  0  0
  144.8130  144.4770   97.5070 C   0  0  0  0  0  0  0  0  0  0  0  0
  146.0000  144.7150   96.7080 N   0  0  0  0  0  0  0  0  0  0  0  0
  146.1300  144.2360   95.8580 H   0  0  0  0  0  0  0  0  0  0  0  0
  143.7460  143.4800   97.0410 C   0  0  0  0  0  0  0  0  0  0  0  0
  142.4500  143.4700   97.4270 C   0  0  0  0  0  0  0  0  0  0  0  0
  141.5640  142.4700   96.9020 C   0  0  0  0  0  0  0  0  0  0  0  0
  140.2330  142.3260   97.1890 C   0  0  0  0  0  0  0  0  0  0  0  0
  139.4980  141.2980   96.5970 C   0  0  0  0  0  0  0  0  0  0  0  0
  140.1240  140.4100   95.7060 C   0  0  0  0  0  0  0  0  0  0  0  0
  141.4830  140.5530   95.4070 C   0  0  0  0  0  0  0  0  0  0  0  0
  142.2720  139.4250   94.2730 Cl  0  0  0  0  0  0  0  0  0  0  0  0
  142.2090  141.5650   95.9890 C   0  0  0  0  0  0  0  0  0  0  0  0
  143.9290  142.1510   95.9320 S   0  0  0  0  0  0  0  0  0  0  0  0
  147.0150  145.6830   97.1810 C   0  0  0  0  0  0  0  0  0  0  0  0
  148.4120  145.2660   96.6820 C   0  0  0  0  0  0  0  0  0  0  0  0
  148.9950  146.2750   95.9100 N   0  0  0  0  0  0  0  0  0  0  0  0
  149.0940  147.4400   96.6390 C   0  0  0  0  0  0  0  0  0  0  0  0
  147.7470  147.9160   97.0950 C   0  0  0  0  0  0  0  0  0  0  0  0
  146.7210  147.0130   96.6560 C   0  0  0  0  0  0  0  0  0  0  0  0
  146.7570  146.9490   95.1970 C   0  0  0  0  0  0  0  0  0  0  0  0
  148.2050  146.5090   94.7580 C   0  0  0  0  0  0  0  0  0  0  0  0
  1  2  2  0
  2  3  1  0
  3 15  1  0
 15 16  1  0
 16 17  1  0
 17 18  1  0
 18 19  1  0
 19 20  1  0
 20 21  1  0
 21 22  1  0
  2  5  1  0
  5  6  2  0
  6  7  1  0
  7  8  2  0
  8  9  1  0
  9 10  2  0
 10 11  1  0
 11 12  1  0
 11 13  2  0
 13 14  1  0
 20 15  1  0
 14  5  1  0
 22 17  1  0
 13  7  1  0
  3  4  1  0
M  END
> <meeko>
{"is_sidechain": false}

> <source_group>
CHRFAM7A at B face

> <source_system>
CHRNA7_encenicline

> <source_run>
hybrid_B_face_seed4409_ex32

> <source_seed>
4409

> <vina_pose_rank>
16

> <vina_affinity_kcal_mol>
-5.2519999999999998

> <vina_rmsd_to_crystal_angstrom>
10.525399999999999

> <minimizedAffinity>
-5.04637

> <CNNscore>
0.1166238561

> <CNNaffinity>
3.6467514038

> <CNN_VS>
0.4252982140

> <CNNaffinity_variance>
0.7440125346

$$$$
CHRNA7_encenicline__hybrid_B_face_seed4409_ex32__pose17


 22 25  0  0  0  0  0  0  0  0999 V2000
  151.8650  136.3680   87.8360 O   0  0  0  0  0  0  0  0  0  0  0  0
  150.9860  136.5360   88.6110 C   0  0  0  0  0  0  0  0  0  0  0  0
  149.6310  136.1630   88.2550 N   0  0  0  0  0  0  0  0  0  0  0  0
  148.8950  136.2970   88.8950 H   0  0  0  0  0  0  0  0  0  0  0  0
  151.2930  137.1420   89.9850 C   0  0  0  0  0  0  0  0  0  0  0  0
  151.2200  138.4550   90.3050 C   0  0  0  0  0  0  0  0  0  0  0  0
  151.5370  138.8750   91.6400 C   0  0  0  0  0  0  0  0  0  0  0  0
  151.5100  140.1570   92.1210 C   0  0  0  0  0  0  0  0  0  0  0  0
  151.8470  140.4110   93.4510 C   0  0  0  0  0  0  0  0  0  0  0  0
  152.2140  139.3510   94.2980 C   0  0  0  0  0  0  0  0  0  0  0  0
  152.2420  138.0400   93.8130 C   0  0  0  0  0  0  0  0  0  0  0  0
  152.7070  136.6990   94.8920 Cl  0  0  0  0  0  0  0  0  0  0  0  0
  151.9110  137.7870   92.5030 C   0  0  0  0  0  0  0  0  0  0  0  0
  151.7960  136.3210   91.4350 S   0  0  0  0  0  0  0  0  0  0  0  0
  149.3630  135.5790   86.9210 C   0  0  0  0  0  0  0  0  0  0  0  0
  148.3400  134.4320   87.0460 C   0  0  0  0  0  0  0  0  0  0  0  0
  147.2070  134.6770   86.2650 N   0  0  0  0  0  0  0  0  0  0  0  0
  147.5620  134.8380   84.9430 C   0  0  0  0  0  0  0  0  0  0  0  0
  148.5130  135.9850   84.7670 C   0  0  0  0  0  0  0  0  0  0  0  0
  148.8030  136.5940   86.0340 C   0  0  0  0  0  0  0  0  0  0  0  0
  147.5500  137.0720   86.6140 C   0  0  0  0  0  0  0  0  0  0  0  0
  146.5590  135.8510   86.7210 C   0  0  0  0  0  0  0  0  0  0  0  0
  1  2  2  0
  2  3  1  0
  3 15  1  0
 15 16  1  0
 16 17  1  0
 17 18  1  0
 18 19  1  0
 19 20  1  0
 20 21  1  0
 21 22  1  0
  2  5  1  0
  5  6  2  0
  6  7  1  0
  7  8  2  0
  8  9  1  0
  9 10  2  0
 10 11  1  0
 11 12  1  0
 11 13  2  0
 13 14  1  0
 20 15  1  0
 14  5  1  0
 22 17  1  0
 13  7  1  0
  3  4  1  0
M  END
> <meeko>
{"is_sidechain": false}

> <source_group>
CHRFAM7A at B face

> <source_system>
CHRNA7_encenicline

> <source_run>
hybrid_B_face_seed4409_ex32

> <source_seed>
4409

> <vina_pose_rank>
17

> <vina_affinity_kcal_mol>
-5.165

> <vina_rmsd_to_crystal_angstrom>
8.8917999999999999

> <minimizedAffinity>
-4.91735

> <CNNscore>
0.0896082446

> <CNNaffinity>
4.0349617004

> <CNN_VS>
0.3615658283

> <CNNaffinity_variance>
0.7688755989

$$$$
CHRNA7_encenicline__hybrid_B_face_seed4409_ex32__pose18


 22 25  0  0  0  0  0  0  0  0999 V2000
  148.6040  137.6290   92.2250 O   0  0  0  0  0  0  0  0  0  0  0  0
  147.9620  138.1050   91.3510 C   0  0  0  0  0  0  0  0  0  0  0  0
  148.5240  138.2110   90.0190 N   0  0  0  0  0  0  0  0  0  0  0  0
  147.9960  138.6030   89.2870 H   0  0  0  0  0  0  0  0  0  0  0  0
  146.5400  138.6000   91.6380 C   0  0  0  0  0  0  0  0  0  0  0  0
  146.0150  138.8310   92.8640 C   0  0  0  0  0  0  0  0  0  0  0  0
  144.6620  139.2970   92.9760 C   0  0  0  0  0  0  0  0  0  0  0  0
  143.9880  139.5790   94.1350 C   0  0  0  0  0  0  0  0  0  0  0  0
  142.6670  140.0250   94.0840 C   0  0  0  0  0  0  0  0  0  0  0  0
  142.0270  140.1850   92.8430 C   0  0  0  0  0  0  0  0  0  0  0  0
  142.7100  139.9010   91.6560 C   0  0  0  0  0  0  0  0  0  0  0  0
  141.8940  140.1080   90.0850 Cl  0  0  0  0  0  0  0  0  0  0  0  0
  144.0110  139.4610   91.7040 C   0  0  0  0  0  0  0  0  0  0  0  0
  145.2810  138.9760   90.4970 S   0  0  0  0  0  0  0  0  0  0  0  0
  149.9010  137.7250   89.7690 C   0  0  0  0  0  0  0  0  0  0  0  0
  149.8560  136.2960   89.1930 C   0  0  0  0  0  0  0  0  0  0  0  0
  150.4810  136.2330   87.9450 N   0  0  0  0  0  0  0  0  0  0  0  0
  151.7910  136.6510   88.0430 C   0  0  0  0  0  0  0  0  0  0  0  0
  151.8790  138.0620   88.5430 C   0  0  0  0  0  0  0  0  0  0  0  0
  150.5670  138.5870   88.7970 C   0  0  0  0  0  0  0  0  0  0  0  0
  149.8060  138.5490   87.5510 C   0  0  0  0  0  0  0  0  0  0  0  0
  149.7930  137.0630   87.0260 C   0  0  0  0  0  0  0  0  0  0  0  0
  1  2  2  0
  2  3  1  0
  3 15  1  0
 15 16  1  0
 16 17  1  0
 17 18  1  0
 18 19  1  0
 19 20  1  0
 20 21  1  0
 21 22  1  0
  2  5  1  0
  5  6  2  0
  6  7  1  0
  7  8  2  0
  8  9  1  0
  9 10  2  0
 10 11  1  0
 11 12  1  0
 11 13  2  0
 13 14  1  0
 20 15  1  0
 14  5  1  0
 22 17  1  0
 13  7  1  0
  3  4  1  0
M  END
> <meeko>
{"is_sidechain": false}

> <source_group>
CHRFAM7A at B face

> <source_system>
CHRNA7_encenicline

> <source_run>
hybrid_B_face_seed4409_ex32

> <source_seed>
4409

> <vina_pose_rank>
18

> <vina_affinity_kcal_mol>
-5.1050000000000004

> <vina_rmsd_to_crystal_angstrom>
8.4147999999999996

> <minimizedAffinity>
-4.87902

> <CNNscore>
0.4086878598

> <CNNaffinity>
5.0587368011

> <CNN_VS>
2.0674443245

> <CNNaffinity_variance>
0.1635263711

$$$$
CHRNA7_encenicline__hybrid_B_face_seed4409_ex32__pose19


 22 25  0  0  0  0  0  0  0  0999 V2000
  150.0140  134.9620   90.1230 O   0  0  0  0  0  0  0  0  0  0  0  0
  150.2010  136.1240   89.9910 C   0  0  0  0  0  0  0  0  0  0  0  0
  149.8990  136.7630   88.7250 N   0  0  0  0  0  0  0  0  0  0  0  0
  150.0490  137.7280   88.6080 H   0  0  0  0  0  0  0  0  0  0  0  0
  150.7560  136.9400   91.1640 C   0  0  0  0  0  0  0  0  0  0  0  0
  151.6210  136.4900   92.1020 C   0  0  0  0  0  0  0  0  0  0  0  0
  152.0560  137.3760   93.1440 C   0  0  0  0  0  0  0  0  0  0  0  0
  152.9240  137.0780   94.1610 C   0  0  0  0  0  0  0  0  0  0  0  0
  153.2530  138.0500   95.1060 C   0  0  0  0  0  0  0  0  0  0  0  0
  152.6930  139.3360   95.0150 C   0  0  0  0  0  0  0  0  0  0  0  0
  151.8070  139.6470   93.9790 C   0  0  0  0  0  0  0  0  0  0  0  0
  151.1020  141.2810   93.8680 Cl  0  0  0  0  0  0  0  0  0  0  0  0
  151.4820  138.6910   93.0470 C   0  0  0  0  0  0  0  0  0  0  0  0
  150.4240  138.6000   91.5710 S   0  0  0  0  0  0  0  0  0  0  0  0
  149.3630  135.9510   87.6090 C   0  0  0  0  0  0  0  0  0  0  0  0
  148.1170  136.6340   87.0130 C   0  0  0  0  0  0  0  0  0  0  0  0
  148.2900  136.9070   85.6540 N   0  0  0  0  0  0  0  0  0  0  0  0
  148.5550  135.7450   84.9620 C   0  0  0  0  0  0  0  0  0  0  0  0
  149.7980  135.0760   85.4690 C   0  0  0  0  0  0  0  0  0  0  0  0
  150.3650  135.8290   86.5530 C   0  0  0  0  0  0  0  0  0  0  0  0
  150.6850  137.1680   86.0670 C   0  0  0  0  0  0  0  0  0  0  0  0
  149.3680  137.8090   85.4830 C   0  0  0  0  0  0  0  0  0  0  0  0
  1  2  2  0
  2  3  1  0
  3 15  1  0
 15 16  1  0
 16 17  1  0
 17 18  1  0
 18 19  1  0
 19 20  1  0
 20 21  1  0
 21 22  1  0
  2  5  1  0
  5  6  2  0
  6  7  1  0
  7  8  2  0
  8  9  1  0
  9 10  2  0
 10 11  1  0
 11 12  1  0
 11 13  2  0
 13 14  1  0
 20 15  1  0
 14  5  1  0
 22 17  1  0
 13  7  1  0
  3  4  1  0
M  END
> <meeko>
{"is_sidechain": false}

> <source_group>
CHRFAM7A at B face

> <source_system>
CHRNA7_encenicline

> <source_run>
hybrid_B_face_seed4409_ex32

> <source_seed>
4409

> <vina_pose_rank>
19

> <vina_affinity_kcal_mol>
-4.8780000000000001

> <vina_rmsd_to_crystal_angstrom>
9.2757000000000005

> <minimizedAffinity>
-4.63398

> <CNNscore>
0.0758039653

> <CNNaffinity>
3.9051952362

> <CNN_VS>
0.2960292697

> <CNNaffinity_variance>
0.6707323194

$$$$
