BACE1_verubecestat__canonical_obabel_seed2207_ex32__pose01
     RDKit          3D

 45 47  0  0  0  0  0  0  0  0999 V2000
   23.1340   11.7050   25.1300 C   0  0  0  0  0  0  0  0  0  0  0  0
   22.5260   11.1400   23.9090 N   0  0  0  0  0  0  0  0  0  0  0  0
   22.4640    9.7520   23.6520 C   0  0  0  0  0  0  0  0  0  0  0  0
   22.8780    8.9740   24.6990 N   0  0  0  0  0  0  0  0  0  0  0  0
   22.0320    9.2430   22.5390 N   0  0  0  0  0  0  0  0  0  0  0  0
   21.6830   10.0830   21.3950 C   0  0  2  0  0  0  0  0  0  0  0  0
   20.8140    9.1560   20.5410 C   0  0  0  0  0  0  0  0  0  0  0  0
   22.9070   10.4890   20.5890 C   0  0  0  0  0  0  0  0  0  0  0  0
   24.1880   10.1040   20.9820 C   0  0  0  0  0  0  0  0  0  0  0  0
   25.3130   10.4580   20.2740 C   0  0  0  0  0  0  0  0  0  0  0  0
   26.5400   10.0040   20.7760 N   0  0  0  0  0  0  0  0  0  0  0  0
   27.6440   10.7510   21.1460 C   0  0  0  0  0  0  0  0  0  0  0  0
   27.7720   11.9550   20.9680 O   0  0  0  0  0  0  0  0  0  0  0  0
   28.7150    9.9960   21.8400 C   0  0  0  0  0  0  0  0  0  0  0  0
   28.6440    8.6170   21.9260 C   0  0  0  0  0  0  0  0  0  0  0  0
   29.6700    7.9630   22.5870 C   0  0  0  0  0  0  0  0  0  0  0  0
   30.7140    8.6900   23.1260 C   0  0  0  0  0  0  0  0  0  0  0  0
   31.7260    8.1010   23.7840 F   0  0  0  0  0  0  0  0  0  0  0  0
   30.6930   10.0600   22.9940 C   0  0  0  0  0  0  0  0  0  0  0  0
   29.7090   10.7220   22.3630 N   0  0  0  0  0  0  0  0  0  0  0  0
   25.2040   11.2080   19.1090 C   0  0  0  0  0  0  0  0  0  0  0  0
   23.9410   11.6020   18.7050 C   0  0  0  0  0  0  0  0  0  0  0  0
   22.8230   11.2660   19.4440 C   0  0  0  0  0  0  0  0  0  0  0  0
   21.5980   11.6900   19.0420 F   0  0  0  0  0  0  0  0  0  0  0  0
   20.8020   11.2290   21.8410 C   0  0  0  0  0  0  0  0  0  0  0  0
   21.6780   12.2960   22.9560 S   0  0  0  0  0  0  0  0  0  0  0  0
   20.6800   12.9100   23.8130 O   0  0  0  0  0  0  0  0  0  0  0  0
   22.7170   13.0170   22.2890 O   0  0  0  0  0  0  0  0  0  0  0  0
   22.6567   11.2615   26.0163 H   0  0  0  0  0  0  0  0  0  0  0  0
   24.2105   11.4793   25.1417 H   0  0  0  0  0  0  0  0  0  0  0  0
   22.9878   12.7952   25.1417 H   0  0  0  0  0  0  0  0  0  0  0  0
   22.8710    7.9930   24.6160 H   0  0  0  0  0  0  0  0  0  0  0  0
   23.1820    9.3950   25.5350 H   0  0  0  0  0  0  0  0  0  0  0  0
   20.2102    8.5119   21.1972 H   0  0  0  0  0  0  0  0  0  0  0  0
   20.1484    9.7593   19.9061 H   0  0  0  0  0  0  0  0  0  0  0  0
   21.4589    8.5308   19.9061 H   0  0  0  0  0  0  0  0  0  0  0  0
   24.3032    9.4953   21.8909 H   0  0  0  0  0  0  0  0  0  0  0  0
   26.6270    9.0290   20.8790 H   0  0  0  0  0  0  0  0  0  0  0  0
   27.8035    8.0607   21.4855 H   0  0  0  0  0  0  0  0  0  0  0  0
   29.6539    6.8673   22.6828 H   0  0  0  0  0  0  0  0  0  0  0  0
   31.5216   10.6405   23.4258 H   0  0  0  0  0  0  0  0  0  0  0  0
   26.0958   11.4803   18.5254 H   0  0  0  0  0  0  0  0  0  0  0  0
   23.8252   12.1907   17.7830 H   0  0  0  0  0  0  0  0  0  0  0  0
   20.4879   11.8073   20.9596 H   0  0  0  0  0  0  0  0  0  0  0  0
   19.9237   10.8185   22.3608 H   0  0  0  0  0  0  0  0  0  0  0  0
  1  2  1  0
  2  3  1  0
  3  4  1  0
  3  5  2  0
  5  6  1  0
  6  7  1  6
  6  8  1  0
  8  9  2  0
  9 10  1  0
 10 11  1  0
 11 12  1  0
 12 13  2  0
 12 14  1  0
 14 15  2  0
 15 16  1  0
 16 17  2  0
 17 18  1  0
 17 19  1  0
 19 20  2  0
 10 21  2  0
 21 22  1  0
 22 23  2  0
 23 24  1  0
  6 25  1  0
 25 26  1  0
 26 27  2  0
 26 28  2  0
 26  2  1  0
 23  8  1  0
 20 14  1  0
  1 29  1  0
  1 30  1  0
  1 31  1  0
  4 32  1  0
  4 33  1  0
  7 34  1  0
  7 35  1  0
  7 36  1  0
  9 37  1  0
 11 38  1  0
 15 39  1  0
 16 40  1  0
 19 41  1  0
 21 42  1  0
 22 43  1  0
 25 44  1  0
 25 45  1  0
M  END
>  <meeko>  (1)
{"is_sidechain": false}

>  <source_group>  (1)
BACE1 canonical

>  <source_system>  (1)
BACE1_verubecestat

>  <source_run>  (1)
canonical_obabel_seed2207_ex32

>  <source_seed>  (1)
2207

>  <vina_pose_rank>  (1)
1

>  <vina_affinity_kcal_mol>  (1)
-9.4879999999999995

>  <vina_rmsd_to_crystal_angstrom>  (1)
0.96530000000000005

$$$$
BACE1_verubecestat__canonical_obabel_seed2207_ex32__pose02
     RDKit          3D

 45 47  0  0  0  0  0  0  0  0999 V2000
   16.9480   14.9060   25.3580 C   0  0  0  0  0  0  0  0  0  0  0  0
   18.0370   14.4840   26.2610 N   0  0  0  0  0  0  0  0  0  0  0  0
   19.2440   15.2030   26.4010 C   0  0  0  0  0  0  0  0  0  0  0  0
   19.2540   16.4050   25.7440 N   0  0  0  0  0  0  0  0  0  0  0  0
   20.2530   14.7910   27.1050 N   0  0  0  0  0  0  0  0  0  0  0  0
   20.2670   13.4660   27.7240 C   0  0  2  0  0  0  0  0  0  0  0  0
   21.3580   13.5970   28.7900 C   0  0  0  0  0  0  0  0  0  0  0  0
   20.6720   12.3810   26.7390 C   0  0  0  0  0  0  0  0  0  0  0  0
   21.0670   12.6980   25.4400 C   0  0  0  0  0  0  0  0  0  0  0  0
   21.4350   11.7370   24.5270 C   0  0  0  0  0  0  0  0  0  0  0  0
   21.8140   12.1900   23.2560 N   0  0  0  0  0  0  0  0  0  0  0  0
   23.0850   12.4800   22.7930 C   0  0  0  0  0  0  0  0  0  0  0  0
   24.0960   12.5080   23.4820 O   0  0  0  0  0  0  0  0  0  0  0  0
   23.1840   12.7360   21.3350 C   0  0  0  0  0  0  0  0  0  0  0  0
   22.0360   12.8050   20.5660 C   0  0  0  0  0  0  0  0  0  0  0  0
   22.1870   13.0440   19.2110 C   0  0  0  0  0  0  0  0  0  0  0  0
   23.4520   13.2070   18.6790 C   0  0  0  0  0  0  0  0  0  0  0  0
   23.6490   13.4320   17.3680 F   0  0  0  0  0  0  0  0  0  0  0  0
   24.5340   13.1160   19.5240 C   0  0  0  0  0  0  0  0  0  0  0  0
   24.4190   12.8790   20.8420 N   0  0  0  0  0  0  0  0  0  0  0  0
   21.4470   10.3940   24.8840 C   0  0  0  0  0  0  0  0  0  0  0  0
   21.0540   10.0600   26.1680 C   0  0  0  0  0  0  0  0  0  0  0  0
   20.6560   11.0330   27.0640 C   0  0  0  0  0  0  0  0  0  0  0  0
   20.2480   10.6760   28.3090 F   0  0  0  0  0  0  0  0  0  0  0  0
   18.9640   13.2180   28.4510 C   0  0  0  0  0  0  0  0  0  0  0  0
   17.6050   13.1880   27.3090 S   0  0  0  0  0  0  0  0  0  0  0  0
   16.4310   13.6090   28.0520 O   0  0  0  0  0  0  0  0  0  0  0  0
   17.6510   12.0350   26.4650 O   0  0  0  0  0  0  0  0  0  0  0  0
   16.0860   15.2400   25.9542 H   0  0  0  0  0  0  0  0  0  0  0  0
   17.2978   15.7337   24.7235 H   0  0  0  0  0  0  0  0  0  0  0  0
   16.6487   14.0587   24.7235 H   0  0  0  0  0  0  0  0  0  0  0  0
   20.0520   16.9800   25.7820 H   0  0  0  0  0  0  0  0  0  0  0  0
   18.4630   16.6940   25.2340 H   0  0  0  0  0  0  0  0  0  0  0  0
   20.9023   13.5423   29.7897 H   0  0  0  0  0  0  0  0  0  0  0  0
   22.0849   12.7797   28.6731 H   0  0  0  0  0  0  0  0  0  0  0  0
   21.8707   14.5632   28.6731 H   0  0  0  0  0  0  0  0  0  0  0  0
   21.0850   13.7545   25.1342 H   0  0  0  0  0  0  0  0  0  0  0  0
   21.0810   12.3180   22.6100 H   0  0  0  0  0  0  0  0  0  0  0  0
   21.0402   12.6748   21.0147 H   0  0  0  0  0  0  0  0  0  0  0  0
   21.3027   13.1040   18.5596 H   0  0  0  0  0  0  0  0  0  0  0  0
   25.5413   13.2433   19.1007 H   0  0  0  0  0  0  0  0  0  0  0  0
   21.7594    9.6200   24.1676 H   0  0  0  0  0  0  0  0  0  0  0  0
   21.0586    9.0050   26.4795 H   0  0  0  0  0  0  0  0  0  0  0  0
   19.0195   12.2508   28.9720 H   0  0  0  0  0  0  0  0  0  0  0  0
   18.8014   14.0314   29.1734 H   0  0  0  0  0  0  0  0  0  0  0  0
  1  2  1  0
  2  3  1  0
  3  4  1  0
  3  5  2  0
  5  6  1  0
  6  7  1  1
  6  8  1  0
  8  9  2  0
  9 10  1  0
 10 11  1  0
 11 12  1  0
 12 13  2  0
 12 14  1  0
 14 15  2  0
 15 16  1  0
 16 17  2  0
 17 18  1  0
 17 19  1  0
 19 20  2  0
 10 21  2  0
 21 22  1  0
 22 23  2  0
 23 24  1  0
  6 25  1  0
 25 26  1  0
 26 27  2  0
 26 28  2  0
 26  2  1  0
 23  8  1  0
 20 14  1  0
  1 29  1  0
  1 30  1  0
  1 31  1  0
  4 32  1  0
  4 33  1  0
  7 34  1  0
  7 35  1  0
  7 36  1  0
  9 37  1  0
 11 38  1  0
 15 39  1  0
 16 40  1  0
 19 41  1  0
 21 42  1  0
 22 43  1  0
 25 44  1  0
 25 45  1  0
M  END
>  <meeko>  (2)
{"is_sidechain": false}

>  <source_group>  (2)
BACE1 canonical

>  <source_system>  (2)
BACE1_verubecestat

>  <source_run>  (2)
canonical_obabel_seed2207_ex32

>  <source_seed>  (2)
2207

>  <vina_pose_rank>  (2)
2

>  <vina_affinity_kcal_mol>  (2)
-8.5239999999999991

>  <vina_rmsd_to_crystal_angstrom>  (2)
7.3585000000000003

$$$$
BACE1_verubecestat__canonical_obabel_seed2207_ex32__pose03
     RDKit          3D

 45 47  0  0  0  0  0  0  0  0999 V2000
   27.7900   12.0240   22.8150 C   0  0  0  0  0  0  0  0  0  0  0  0
   27.0380   12.4220   21.6090 N   0  0  0  0  0  0  0  0  0  0  0  0
   26.5430   13.7300   21.4060 C   0  0  0  0  0  0  0  0  0  0  0  0
   26.9520   14.6310   22.3520 N   0  0  0  0  0  0  0  0  0  0  0  0
   25.7890   14.0690   20.4060 N   0  0  0  0  0  0  0  0  0  0  0  0
   25.2830   13.0800   19.4560 C   0  0  2  0  0  0  0  0  0  0  0  0
   24.8830   13.9360   18.2510 C   0  0  0  0  0  0  0  0  0  0  0  0
   24.0480   12.3650   19.9810 C   0  0  0  0  0  0  0  0  0  0  0  0
   23.5630   12.6140   21.2640 C   0  0  0  0  0  0  0  0  0  0  0  0
   22.4490   11.9790   21.7670 C   0  0  0  0  0  0  0  0  0  0  0  0
   22.0650   12.3220   23.0700 N   0  0  0  0  0  0  0  0  0  0  0  0
   22.3320   11.6470   24.2480 C   0  0  0  0  0  0  0  0  0  0  0  0
   22.8530   10.5420   24.3240 O   0  0  0  0  0  0  0  0  0  0  0  0
   21.9720   12.3740   25.4890 C   0  0  0  0  0  0  0  0  0  0  0  0
   20.6640   12.7740   25.7010 C   0  0  0  0  0  0  0  0  0  0  0  0
   20.3840   13.4500   26.8760 C   0  0  0  0  0  0  0  0  0  0  0  0
   21.3950   13.6980   27.7840 C   0  0  0  0  0  0  0  0  0  0  0  0
   21.1730   14.3590   28.9330 F   0  0  0  0  0  0  0  0  0  0  0  0
   22.6660   13.2650   27.4810 C   0  0  0  0  0  0  0  0  0  0  0  0
   22.9690   12.6120   26.3470 N   0  0  0  0  0  0  0  0  0  0  0  0
   21.7480   11.0680   20.9870 C   0  0  0  0  0  0  0  0  0  0  0  0
   22.2170   10.8050   19.7130 C   0  0  0  0  0  0  0  0  0  0  0  0
   23.3540   11.4260   19.2330 C   0  0  0  0  0  0  0  0  0  0  0  0
   23.8100   11.1290   17.9900 F   0  0  0  0  0  0  0  0  0  0  0  0
   26.4040   12.1730   19.0020 C   0  0  0  0  0  0  0  0  0  0  0  0
   27.0390   11.2300   20.3660 S   0  0  0  0  0  0  0  0  0  0  0  0
   28.4260   10.9340   20.0550 O   0  0  0  0  0  0  0  0  0  0  0  0
   26.0930   10.2600   20.8220 O   0  0  0  0  0  0  0  0  0  0  0  0
   27.2278   12.3215   23.7125 H   0  0  0  0  0  0  0  0  0  0  0  0
   27.9312   10.9331   22.8157 H   0  0  0  0  0  0  0  0  0  0  0  0
   28.7715   12.5207   22.8157 H   0  0  0  0  0  0  0  0  0  0  0  0
   26.6590   15.5690   22.2970 H   0  0  0  0  0  0  0  0  0  0  0  0
   27.5390   14.3410   23.0880 H   0  0  0  0  0  0  0  0  0  0  0  0
   24.4417   14.8803   18.6024 H   0  0  0  0  0  0  0  0  0  0  0  0
   25.7737   14.1515   17.6425 H   0  0  0  0  0  0  0  0  0  0  0  0
   24.1463   13.3911   17.6425 H   0  0  0  0  0  0  0  0  0  0  0  0
   24.0887   13.3437   21.8973 H   0  0  0  0  0  0  0  0  0  0  0  0
   21.5390   13.1500   23.1580 H   0  0  0  0  0  0  0  0  0  0  0  0
   19.8762   12.5625   24.9630 H   0  0  0  0  0  0  0  0  0  0  0  0
   19.3588   13.7889   27.0862 H   0  0  0  0  0  0  0  0  0  0  0  0
   23.4724   13.4633   28.2023 H   0  0  0  0  0  0  0  0  0  0  0  0
   20.8457   10.5701   21.3717 H   0  0  0  0  0  0  0  0  0  0  0  0
   21.6774   10.0915   19.0729 H   0  0  0  0  0  0  0  0  0  0  0  0
   26.0228   11.4846   18.2333 H   0  0  0  0  0  0  0  0  0  0  0  0
   27.2155   12.7917   18.5913 H   0  0  0  0  0  0  0  0  0  0  0  0
  1  2  1  0
  2  3  1  0
  3  4  1  0
  3  5  2  0
  5  6  1  0
  6  7  1  6
  6  8  1  0
  8  9  2  0
  9 10  1  0
 10 11  1  0
 11 12  1  0
 12 13  2  0
 12 14  1  0
 14 15  2  0
 15 16  1  0
 16 17  2  0
 17 18  1  0
 17 19  1  0
 19 20  2  0
 10 21  2  0
 21 22  1  0
 22 23  2  0
 23 24  1  0
  6 25  1  0
 25 26  1  0
 26 27  2  0
 26 28  2  0
 26  2  1  0
 23  8  1  0
 20 14  1  0
  1 29  1  0
  1 30  1  0
  1 31  1  0
  4 32  1  0
  4 33  1  0
  7 34  1  0
  7 35  1  0
  7 36  1  0
  9 37  1  0
 11 38  1  0
 15 39  1  0
 16 40  1  0
 19 41  1  0
 21 42  1  0
 22 43  1  0
 25 44  1  0
 25 45  1  0
M  END
>  <meeko>  (3)
{"is_sidechain": false}

>  <source_group>  (3)
BACE1 canonical

>  <source_system>  (3)
BACE1_verubecestat

>  <source_run>  (3)
canonical_obabel_seed2207_ex32

>  <source_seed>  (3)
2207

>  <vina_pose_rank>  (3)
3

>  <vina_affinity_kcal_mol>  (3)
-8.3469999999999995

>  <vina_rmsd_to_crystal_angstrom>  (3)
7.0961999999999996

$$$$
BACE1_verubecestat__canonical_obabel_seed2207_ex32__pose04
     RDKit          3D

 45 47  0  0  0  0  0  0  0  0999 V2000
   26.9830   11.4990   21.6340 C   0  0  0  0  0  0  0  0  0  0  0  0
   25.7750   11.8960   20.8830 N   0  0  0  0  0  0  0  0  0  0  0  0
   25.2400   13.2030   20.9220 C   0  0  0  0  0  0  0  0  0  0  0  0
   26.0220   14.1040   21.5920 N   0  0  0  0  0  0  0  0  0  0  0  0
   24.1220   13.5420   20.3570 N   0  0  0  0  0  0  0  0  0  0  0  0
   23.2500   12.5530   19.7260 C   0  0  2  0  0  0  0  0  0  0  0  0
   22.3580   13.4090   18.8220 C   0  0  0  0  0  0  0  0  0  0  0  0
   22.3740   11.8340   20.7410 C   0  0  0  0  0  0  0  0  0  0  0  0
   22.3470   12.2300   22.0770 C   0  0  0  0  0  0  0  0  0  0  0  0
   21.5670   11.5970   23.0170 C   0  0  0  0  0  0  0  0  0  0  0  0
   21.6300   12.0960   24.3250 N   0  0  0  0  0  0  0  0  0  0  0  0
   20.6310   12.7130   25.0560 C   0  0  0  0  0  0  0  0  0  0  0  0
   19.5380   13.0440   24.6150 O   0  0  0  0  0  0  0  0  0  0  0  0
   20.9420   12.9390   26.4880 C   0  0  0  0  0  0  0  0  0  0  0  0
   21.4000   11.8930   27.2690 C   0  0  0  0  0  0  0  0  0  0  0  0
   21.6730   12.1590   28.5990 C   0  0  0  0  0  0  0  0  0  0  0  0
   21.4870   13.4340   29.0980 C   0  0  0  0  0  0  0  0  0  0  0  0
   21.7290   13.7380   30.3840 F   0  0  0  0  0  0  0  0  0  0  0  0
   21.0210   14.4080   28.2430 C   0  0  0  0  0  0  0  0  0  0  0  0
   20.7420   14.1780   26.9500 N   0  0  0  0  0  0  0  0  0  0  0  0
   20.7480   10.5350   22.6520 C   0  0  0  0  0  0  0  0  0  0  0  0
   20.7640   10.1260   21.3300 C   0  0  0  0  0  0  0  0  0  0  0  0
   21.5770   10.7510   20.4050 C   0  0  0  0  0  0  0  0  0  0  0  0
   21.5960   10.3110   19.1200 F   0  0  0  0  0  0  0  0  0  0  0  0
   24.0580   11.6480   18.8230 C   0  0  0  0  0  0  0  0  0  0  0  0
   25.2300   10.7050   19.7660 S   0  0  0  0  0  0  0  0  0  0  0  0
   26.3390   10.4130   18.8750 O   0  0  0  0  0  0  0  0  0  0  0  0
   24.5840    9.7330   20.5900 O   0  0  0  0  0  0  0  0  0  0  0  0
   26.7819   11.5651   22.7134 H   0  0  0  0  0  0  0  0  0  0  0  0
   27.2530   10.4648   21.3740 H   0  0  0  0  0  0  0  0  0  0  0  0
   27.8139   12.1713   21.3740 H   0  0  0  0  0  0  0  0  0  0  0  0
   25.7340   15.0420   21.6730 H   0  0  0  0  0  0  0  0  0  0  0  0
   26.8740   13.8150   21.9930 H   0  0  0  0  0  0  0  0  0  0  0  0
   21.7028   14.0378   19.4427 H   0  0  0  0  0  0  0  0  0  0  0  0
   22.9872   14.0500   18.1870 H   0  0  0  0  0  0  0  0  0  0  0  0
   21.7434   12.7540   18.1870 H   0  0  0  0  0  0  0  0  0  0  0  0
   22.9718   13.0791   22.3911 H   0  0  0  0  0  0  0  0  0  0  0  0
   22.4960   11.9930   24.7820 H   0  0  0  0  0  0  0  0  0  0  0  0
   21.5419   10.8867   26.8480 H   0  0  0  0  0  0  0  0  0  0  0  0
   22.0374   11.3571   29.2579 H   0  0  0  0  0  0  0  0  0  0  0  0
   20.8701   15.4233   28.6385 H   0  0  0  0  0  0  0  0  0  0  0  0
   20.1062   10.0345   23.3919 H   0  0  0  0  0  0  0  0  0  0  0  0
   20.1208    9.2923   21.0119 H   0  0  0  0  0  0  0  0  0  0  0  0
   23.3781   10.9596   18.2997 H   0  0  0  0  0  0  0  0  0  0  0  0
   24.6049   12.2686   18.0980 H   0  0  0  0  0  0  0  0  0  0  0  0
  1  2  1  0
  2  3  1  0
  3  4  1  0
  3  5  2  0
  5  6  1  0
  6  7  1  6
  6  8  1  0
  8  9  2  0
  9 10  1  0
 10 11  1  0
 11 12  1  0
 12 13  2  0
 12 14  1  0
 14 15  2  0
 15 16  1  0
 16 17  2  0
 17 18  1  0
 17 19  1  0
 19 20  2  0
 10 21  2  0
 21 22  1  0
 22 23  2  0
 23 24  1  0
  6 25  1  0
 25 26  1  0
 26 27  2  0
 26 28  2  0
 26  2  1  0
 23  8  1  0
 20 14  1  0
  1 29  1  0
  1 30  1  0
  1 31  1  0
  4 32  1  0
  4 33  1  0
  7 34  1  0
  7 35  1  0
  7 36  1  0
  9 37  1  0
 11 38  1  0
 15 39  1  0
 16 40  1  0
 19 41  1  0
 21 42  1  0
 22 43  1  0
 25 44  1  0
 25 45  1  0
M  END
>  <meeko>  (4)
{"is_sidechain": false}

>  <source_group>  (4)
BACE1 canonical

>  <source_system>  (4)
BACE1_verubecestat

>  <source_run>  (4)
canonical_obabel_seed2207_ex32

>  <source_seed>  (4)
2207

>  <vina_pose_rank>  (4)
4

>  <vina_affinity_kcal_mol>  (4)
-8.2249999999999996

>  <vina_rmsd_to_crystal_angstrom>  (4)
7.3658000000000001

$$$$
BACE1_verubecestat__canonical_obabel_seed2207_ex32__pose05
     RDKit          3D

 45 47  0  0  0  0  0  0  0  0999 V2000
   27.1250   15.5920   19.5170 C   0  0  0  0  0  0  0  0  0  0  0  0
   26.7420   14.1710   19.6360 N   0  0  0  0  0  0  0  0  0  0  0  0
   26.4140   13.3660   18.5230 C   0  0  0  0  0  0  0  0  0  0  0  0
   26.6300   13.9740   17.3150 N   0  0  0  0  0  0  0  0  0  0  0  0
   25.9710   12.1500   18.6170 N   0  0  0  0  0  0  0  0  0  0  0  0
   25.6550   11.5460   19.9100 C   0  0  2  0  0  0  0  0  0  0  0  0
   25.6440   10.0480   19.5950 C   0  0  0  0  0  0  0  0  0  0  0  0
   24.2770   11.9530   20.4080 C   0  0  0  0  0  0  0  0  0  0  0  0
   23.9320   11.8300   21.7530 C   0  0  0  0  0  0  0  0  0  0  0  0
   22.6920   12.1880   22.2310 C   0  0  0  0  0  0  0  0  0  0  0  0
   22.4750   12.0160   23.6050 N   0  0  0  0  0  0  0  0  0  0  0  0
   23.2230   12.5100   24.6590 C   0  0  0  0  0  0  0  0  0  0  0  0
   24.2970   13.0870   24.5510 O   0  0  0  0  0  0  0  0  0  0  0  0
   22.6180   12.3340   26.0010 C   0  0  0  0  0  0  0  0  0  0  0  0
   21.5250   11.5010   26.1630 C   0  0  0  0  0  0  0  0  0  0  0  0
   21.0000   11.3750   27.4370 C   0  0  0  0  0  0  0  0  0  0  0  0
   21.5710   12.0660   28.4880 C   0  0  0  0  0  0  0  0  0  0  0  0
   21.0900   11.9830   29.7400 F   0  0  0  0  0  0  0  0  0  0  0  0
   22.6530   12.8760   28.2260 C   0  0  0  0  0  0  0  0  0  0  0  0
   23.1810   13.0230   27.0000 N   0  0  0  0  0  0  0  0  0  0  0  0
   21.7330   12.7140   21.3750 C   0  0  0  0  0  0  0  0  0  0  0  0
   22.0560   12.8400   20.0350 C   0  0  0  0  0  0  0  0  0  0  0  0
   23.2930   12.4470   19.5640 C   0  0  0  0  0  0  0  0  0  0  0  0
   23.5750   12.5540   18.2410 F   0  0  0  0  0  0  0  0  0  0  0  0
   26.7850   11.7860   20.8860 C   0  0  0  0  0  0  0  0  0  0  0  0
   26.9750   13.5200   21.2130 S   0  0  0  0  0  0  0  0  0  0  0  0
   28.3690   13.7260   21.5610 O   0  0  0  0  0  0  0  0  0  0  0  0
   25.8740   14.0390   21.9630 O   0  0  0  0  0  0  0  0  0  0  0  0
   27.2419   16.0256   20.5212 H   0  0  0  0  0  0  0  0  0  0  0  0
   28.0764   15.6708   18.9706 H   0  0  0  0  0  0  0  0  0  0  0  0
   26.3420   16.1383   18.9706 H   0  0  0  0  0  0  0  0  0  0  0  0
   26.4320   13.4920   16.4800 H   0  0  0  0  0  0  0  0  0  0  0  0
   26.9850   14.8920   17.2820 H   0  0  0  0  0  0  0  0  0  0  0  0
   25.6398    9.4758   20.5344 H   0  0  0  0  0  0  0  0  0  0  0  0
   24.7440    9.8025   19.0121 H   0  0  0  0  0  0  0  0  0  0  0  0
   26.5403    9.7893   19.0121 H   0  0  0  0  0  0  0  0  0  0  0  0
   24.6775   11.4326   22.4575 H   0  0  0  0  0  0  0  0  0  0  0  0
   21.6900   11.4760   23.8510 H   0  0  0  0  0  0  0  0  0  0  0  0
   21.0896   10.9590   25.3105 H   0  0  0  0  0  0  0  0  0  0  0  0
   20.1295   10.7258   27.6125 H   0  0  0  0  0  0  0  0  0  0  0  0
   23.1069   13.4295   29.0612 H   0  0  0  0  0  0  0  0  0  0  0  0
   20.7460   13.0214   21.7509 H   0  0  0  0  0  0  0  0  0  0  0  0
   21.3172   13.2589   19.3359 H   0  0  0  0  0  0  0  0  0  0  0  0
   26.5652   11.2629   21.8284 H   0  0  0  0  0  0  0  0  0  0  0  0
   27.7185   11.4050   20.4463 H   0  0  0  0  0  0  0  0  0  0  0  0
  1  2  1  0
  2  3  1  0
  3  4  1  0
  3  5  2  0
  5  6  1  0
  6  7  1  6
  6  8  1  0
  8  9  2  0
  9 10  1  0
 10 11  1  0
 11 12  1  0
 12 13  2  0
 12 14  1  0
 14 15  2  0
 15 16  1  0
 16 17  2  0
 17 18  1  0
 17 19  1  0
 19 20  2  0
 10 21  2  0
 21 22  1  0
 22 23  2  0
 23 24  1  0
  6 25  1  0
 25 26  1  0
 26 27  2  0
 26 28  2  0
 26  2  1  0
 23  8  1  0
 20 14  1  0
  1 29  1  0
  1 30  1  0
  1 31  1  0
  4 32  1  0
  4 33  1  0
  7 34  1  0
  7 35  1  0
  7 36  1  0
  9 37  1  0
 11 38  1  0
 15 39  1  0
 16 40  1  0
 19 41  1  0
 21 42  1  0
 22 43  1  0
 25 44  1  0
 25 45  1  0
M  END
>  <meeko>  (5)
{"is_sidechain": false}

>  <source_group>  (5)
BACE1 canonical

>  <source_system>  (5)
BACE1_verubecestat

>  <source_run>  (5)
canonical_obabel_seed2207_ex32

>  <source_seed>  (5)
2207

>  <vina_pose_rank>  (5)
5

>  <vina_affinity_kcal_mol>  (5)
-8.1850000000000005

>  <vina_rmsd_to_crystal_angstrom>  (5)
7.1043000000000003

$$$$
BACE1_verubecestat__canonical_obabel_seed2207_ex32__pose06
     RDKit          3D

 45 47  0  0  0  0  0  0  0  0999 V2000
   28.4860   13.7090   24.2250 C   0  0  0  0  0  0  0  0  0  0  0  0
   28.0560   13.8230   22.8170 N   0  0  0  0  0  0  0  0  0  0  0  0
   27.1970   14.8440   22.3540 C   0  0  0  0  0  0  0  0  0  0  0  0
   26.9210   15.8040   23.2900 N   0  0  0  0  0  0  0  0  0  0  0  0
   26.7230   14.8970   21.1480 N   0  0  0  0  0  0  0  0  0  0  0  0
   26.9470   13.8180   20.1860 C   0  0  2  0  0  0  0  0  0  0  0  0
   26.6520   14.4900   18.8420 C   0  0  0  0  0  0  0  0  0  0  0  0
   25.9730   12.6670   20.3840 C   0  0  0  0  0  0  0  0  0  0  0  0
   25.0700   12.6620   21.4450 C   0  0  0  0  0  0  0  0  0  0  0  0
   24.1800   11.6320   21.6500 C   0  0  0  0  0  0  0  0  0  0  0  0
   23.3240   11.7520   22.7530 N   0  0  0  0  0  0  0  0  0  0  0  0
   22.0570   12.3060   22.7990 C   0  0  0  0  0  0  0  0  0  0  0  0
   21.5200   12.9120   21.8810 O   0  0  0  0  0  0  0  0  0  0  0  0
   21.3190   12.0930   24.0670 C   0  0  0  0  0  0  0  0  0  0  0  0
   20.1410   11.3660   24.0670 C   0  0  0  0  0  0  0  0  0  0  0  0
   19.4920   11.2000   25.2780 C   0  0  0  0  0  0  0  0  0  0  0  0
   20.0280   11.7500   26.4270 C   0  0  0  0  0  0  0  0  0  0  0  0
   19.4290   11.6230   27.6230 F   0  0  0  0  0  0  0  0  0  0  0  0
   21.2020   12.4620   26.3240 C   0  0  0  0  0  0  0  0  0  0  0  0
   21.8510   12.6450   25.1630 N   0  0  0  0  0  0  0  0  0  0  0  0
   24.1380   10.5540   20.7740 C   0  0  0  0  0  0  0  0  0  0  0  0
   25.0300   10.5410   19.7170 C   0  0  0  0  0  0  0  0  0  0  0  0
   25.9390   11.5650   19.5420 C   0  0  0  0  0  0  0  0  0  0  0  0
   26.8230   11.5140   18.5130 F   0  0  0  0  0  0  0  0  0  0  0  0
   28.4080   13.4270   20.1760 C   0  0  0  0  0  0  0  0  0  0  0  0
   28.8900   12.7610   21.7490 S   0  0  0  0  0  0  0  0  0  0  0  0
   30.3090   13.0320   21.8950 O   0  0  0  0  0  0  0  0  0  0  0  0
   28.2860   11.4890   21.9900 O   0  0  0  0  0  0  0  0  0  0  0  0
   27.6369   13.9341   24.8871 H   0  0  0  0  0  0  0  0  0  0  0  0
   28.8406   12.6858   24.4184 H   0  0  0  0  0  0  0  0  0  0  0  0
   29.3009   14.4221   24.4184 H   0  0  0  0  0  0  0  0  0  0  0  0
   26.3300   16.5590   23.0620 H   0  0  0  0  0  0  0  0  0  0  0  0
   27.3130   15.7410   24.1910 H   0  0  0  0  0  0  0  0  0  0  0  0
   26.2155   15.4844   19.0172 H   0  0  0  0  0  0  0  0  0  0  0  0
   27.5867   14.5952   18.2717 H   0  0  0  0  0  0  0  0  0  0  0  0
   25.9419   13.8732   18.2717 H   0  0  0  0  0  0  0  0  0  0  0  0
   25.0682   13.5115   22.1439 H   0  0  0  0  0  0  0  0  0  0  0  0
   23.6680   11.3950   23.6040 H   0  0  0  0  0  0  0  0  0  0  0  0
   19.7358   10.9362   23.1390 H   0  0  0  0  0  0  0  0  0  0  0  0
   18.5515   10.6315   25.3259 H   0  0  0  0  0  0  0  0  0  0  0  0
   21.6289   12.9022   27.2372 H   0  0  0  0  0  0  0  0  0  0  0  0
   23.4170    9.7356   20.9169 H   0  0  0  0  0  0  0  0  0  0  0  0
   25.0148    9.7023   19.0054 H   0  0  0  0  0  0  0  0  0  0  0  0
   28.5735   12.6685   19.3967 H   0  0  0  0  0  0  0  0  0  0  0  0
   29.0125   14.3229   19.9711 H   0  0  0  0  0  0  0  0  0  0  0  0
  1  2  1  0
  2  3  1  0
  3  4  1  0
  3  5  2  0
  5  6  1  0
  6  7  1  6
  6  8  1  0
  8  9  2  0
  9 10  1  0
 10 11  1  0
 11 12  1  0
 12 13  2  0
 12 14  1  0
 14 15  2  0
 15 16  1  0
 16 17  2  0
 17 18  1  0
 17 19  1  0
 19 20  2  0
 10 21  2  0
 21 22  1  0
 22 23  2  0
 23 24  1  0
  6 25  1  0
 25 26  1  0
 26 27  2  0
 26 28  2  0
 26  2  1  0
 23  8  1  0
 20 14  1  0
  1 29  1  0
  1 30  1  0
  1 31  1  0
  4 32  1  0
  4 33  1  0
  7 34  1  0
  7 35  1  0
  7 36  1  0
  9 37  1  0
 11 38  1  0
 15 39  1  0
 16 40  1  0
 19 41  1  0
 21 42  1  0
 22 43  1  0
 25 44  1  0
 25 45  1  0
M  END
>  <meeko>  (6)
{"is_sidechain": false}

>  <source_group>  (6)
BACE1 canonical

>  <source_system>  (6)
BACE1_verubecestat

>  <source_run>  (6)
canonical_obabel_seed2207_ex32

>  <source_seed>  (6)
2207

>  <vina_pose_rank>  (6)
6

>  <vina_affinity_kcal_mol>  (6)
-7.9989999999999997

>  <vina_rmsd_to_crystal_angstrom>  (6)
7.5472999999999999

$$$$
BACE1_verubecestat__canonical_obabel_seed2207_ex32__pose07
     RDKit          3D

 45 47  0  0  0  0  0  0  0  0999 V2000
   21.8740   11.9850   28.9940 C   0  0  0  0  0  0  0  0  0  0  0  0
   20.8320   12.4720   28.0680 N   0  0  0  0  0  0  0  0  0  0  0  0
   19.4760   12.0910   28.1670 C   0  0  0  0  0  0  0  0  0  0  0  0
   19.1850   11.3550   29.2840 N   0  0  0  0  0  0  0  0  0  0  0  0
   18.5680   12.4220   27.3010 N   0  0  0  0  0  0  0  0  0  0  0  0
   18.9070   13.1270   26.0650 C   0  0  2  0  0  0  0  0  0  0  0  0
   17.5610   13.7080   25.6220 C   0  0  0  0  0  0  0  0  0  0  0  0
   19.4110   12.1800   24.9880 C   0  0  0  0  0  0  0  0  0  0  0  0
   20.2990   12.6150   24.0050 C   0  0  0  0  0  0  0  0  0  0  0  0
   20.7700   11.7800   23.0170 C   0  0  0  0  0  0  0  0  0  0  0  0
   21.6600   12.3420   22.0920 N   0  0  0  0  0  0  0  0  0  0  0  0
   23.0370   12.2240   22.0470 C   0  0  0  0  0  0  0  0  0  0  0  0
   23.7270   11.6960   22.9090 O   0  0  0  0  0  0  0  0  0  0  0  0
   23.6790   12.7620   20.8230 C   0  0  0  0  0  0  0  0  0  0  0  0
   22.9470   12.8830   19.6550 C   0  0  0  0  0  0  0  0  0  0  0  0
   23.5970   13.3890   18.5420 C   0  0  0  0  0  0  0  0  0  0  0  0
   24.9260   13.7530   18.6290 C   0  0  0  0  0  0  0  0  0  0  0  0
   25.6010   14.2400   17.5740 F   0  0  0  0  0  0  0  0  0  0  0  0
   25.5720   13.5900   19.8340 C   0  0  0  0  0  0  0  0  0  0  0  0
   24.9700   13.0960   20.9280 N   0  0  0  0  0  0  0  0  0  0  0  0
   20.3840   10.4460   22.9800 C   0  0  0  0  0  0  0  0  0  0  0  0
   19.5010    9.9980   23.9450 C   0  0  0  0  0  0  0  0  0  0  0  0
   19.0120   10.8540   24.9120 C   0  0  0  0  0  0  0  0  0  0  0  0
   18.1230   10.3960   25.8310 F   0  0  0  0  0  0  0  0  0  0  0  0
   19.8160   14.2970   26.3670 C   0  0  0  0  0  0  0  0  0  0  0  0
   21.3660   13.7330   27.0250 S   0  0  0  0  0  0  0  0  0  0  0  0
   21.8720   14.8020   27.8660 O   0  0  0  0  0  0  0  0  0  0  0  0
   22.1420   13.0530   26.0350 O   0  0  0  0  0  0  0  0  0  0  0  0
   21.5435   12.1394   30.0318 H   0  0  0  0  0  0  0  0  0  0  0  0
   22.0471   10.9127   28.8200 H   0  0  0  0  0  0  0  0  0  0  0  0
   22.8076   12.5400   28.8200 H   0  0  0  0  0  0  0  0  0  0  0  0
   18.2650   11.0420   29.4420 H   0  0  0  0  0  0  0  0  0  0  0  0
   19.8970   11.1380   29.9300 H   0  0  0  0  0  0  0  0  0  0  0  0
   16.9633   13.9660   26.5087 H   0  0  0  0  0  0  0  0  0  0  0  0
   17.7324   14.6123   25.0196 H   0  0  0  0  0  0  0  0  0  0  0  0
   17.0205   12.9631   25.0196 H   0  0  0  0  0  0  0  0  0  0  0  0
   20.6351   13.6623   24.0194 H   0  0  0  0  0  0  0  0  0  0  0  0
   21.2520   12.8920   21.3840 H   0  0  0  0  0  0  0  0  0  0  0  0
   21.8881   12.5882   19.6123 H   0  0  0  0  0  0  0  0  0  0  0  0
   23.0559   13.5007   17.5908 H   0  0  0  0  0  0  0  0  0  0  0  0
   26.6313   13.8781   19.9038 H   0  0  0  0  0  0  0  0  0  0  0  0
   20.7695    9.7662   22.2058 H   0  0  0  0  0  0  0  0  0  0  0  0
   19.1835    8.9448   23.9424 H   0  0  0  0  0  0  0  0  0  0  0  0
   20.0004   14.8598   25.4401 H   0  0  0  0  0  0  0  0  0  0  0  0
   19.3279   14.9410   27.1134 H   0  0  0  0  0  0  0  0  0  0  0  0
  1  2  1  0
  2  3  1  0
  3  4  1  0
  3  5  2  0
  5  6  1  0
  6  7  1  6
  6  8  1  0
  8  9  2  0
  9 10  1  0
 10 11  1  0
 11 12  1  0
 12 13  2  0
 12 14  1  0
 14 15  2  0
 15 16  1  0
 16 17  2  0
 17 18  1  0
 17 19  1  0
 19 20  2  0
 10 21  2  0
 21 22  1  0
 22 23  2  0
 23 24  1  0
  6 25  1  0
 25 26  1  0
 26 27  2  0
 26 28  2  0
 26  2  1  0
 23  8  1  0
 20 14  1  0
  1 29  1  0
  1 30  1  0
  1 31  1  0
  4 32  1  0
  4 33  1  0
  7 34  1  0
  7 35  1  0
  7 36  1  0
  9 37  1  0
 11 38  1  0
 15 39  1  0
 16 40  1  0
 19 41  1  0
 21 42  1  0
 22 43  1  0
 25 44  1  0
 25 45  1  0
M  END
>  <meeko>  (7)
{"is_sidechain": false}

>  <source_group>  (7)
BACE1 canonical

>  <source_system>  (7)
BACE1_verubecestat

>  <source_run>  (7)
canonical_obabel_seed2207_ex32

>  <source_seed>  (7)
2207

>  <vina_pose_rank>  (7)
7

>  <vina_affinity_kcal_mol>  (7)
-7.9550000000000001

>  <vina_rmsd_to_crystal_angstrom>  (7)
6.2920999999999996

$$$$
BACE1_verubecestat__canonical_obabel_seed2207_ex32__pose08
     RDKit          3D

 45 47  0  0  0  0  0  0  0  0999 V2000
   21.2270    9.4980   23.3640 C   0  0  0  0  0  0  0  0  0  0  0  0
   21.5850   10.4910   22.3320 N   0  0  0  0  0  0  0  0  0  0  0  0
   21.5870   10.1990   20.9500 C   0  0  0  0  0  0  0  0  0  0  0  0
   21.0820    8.9640   20.6430 N   0  0  0  0  0  0  0  0  0  0  0  0
   22.0020   11.0240   20.0390 N   0  0  0  0  0  0  0  0  0  0  0  0
   22.6250   12.3000   20.3840 C   0  0  2  0  0  0  0  0  0  0  0  0
   22.5080   13.1020   19.0850 C   0  0  0  0  0  0  0  0  0  0  0  0
   24.0970   12.1400   20.7320 C   0  0  0  0  0  0  0  0  0  0  0  0
   24.6960   12.9310   21.7110 C   0  0  0  0  0  0  0  0  0  0  0  0
   26.0260   12.8100   22.0440 C   0  0  0  0  0  0  0  0  0  0  0  0
   26.5020   13.6640   23.0480 N   0  0  0  0  0  0  0  0  0  0  0  0
   26.2860   13.5870   24.4120 C   0  0  0  0  0  0  0  0  0  0  0  0
   25.5160   12.8090   24.9600 O   0  0  0  0  0  0  0  0  0  0  0  0
   27.0980   14.5150   25.2350 C   0  0  0  0  0  0  0  0  0  0  0  0
   26.5160   15.6460   25.7790 C   0  0  0  0  0  0  0  0  0  0  0  0
   27.3210   16.4780   26.5370 C   0  0  0  0  0  0  0  0  0  0  0  0
   28.6520   16.1610   26.7280 C   0  0  0  0  0  0  0  0  0  0  0  0
   29.4740   16.9430   27.4480 F   0  0  0  0  0  0  0  0  0  0  0  0
   29.1410   15.0160   26.1410 C   0  0  0  0  0  0  0  0  0  0  0  0
   28.3860   14.1930   25.3960 N   0  0  0  0  0  0  0  0  0  0  0  0
   26.8250   11.8620   21.4170 C   0  0  0  0  0  0  0  0  0  0  0  0
   26.2480   11.0710   20.4390 C   0  0  0  0  0  0  0  0  0  0  0  0
   24.9200   11.2250   20.0930 C   0  0  0  0  0  0  0  0  0  0  0  0
   24.3860   10.4560   19.1100 F   0  0  0  0  0  0  0  0  0  0  0  0
   21.7960   13.0180   21.4250 C   0  0  0  0  0  0  0  0  0  0  0  0
   21.7510   12.0930   22.9400 S   0  0  0  0  0  0  0  0  0  0  0  0
   20.5030   12.4350   23.5970 O   0  0  0  0  0  0  0  0  0  0  0  0
   23.0250   12.0830   23.5890 O   0  0  0  0  0  0  0  0  0  0  0  0
   21.3840    9.9334   24.3619 H   0  0  0  0  0  0  0  0  0  0  0  0
   20.1702    9.2149   23.2495 H   0  0  0  0  0  0  0  0  0  0  0  0
   21.8600    8.6057   23.2495 H   0  0  0  0  0  0  0  0  0  0  0  0
   21.0410    8.6680   19.7050 H   0  0  0  0  0  0  0  0  0  0  0  0
   20.7600    8.3710   21.3600 H   0  0  0  0  0  0  0  0  0  0  0  0
   22.3530   14.1647   19.3229 H   0  0  0  0  0  0  0  0  0  0  0  0
   23.4322   12.9884   18.4994 H   0  0  0  0  0  0  0  0  0  0  0  0
   21.6548   12.7291   18.4994 H   0  0  0  0  0  0  0  0  0  0  0  0
   24.0838   13.6788   22.2363 H   0  0  0  0  0  0  0  0  0  0  0  0
   27.0630   14.4140   22.7430 H   0  0  0  0  0  0  0  0  0  0  0  0
   25.4528   15.8754   25.6151 H   0  0  0  0  0  0  0  0  0  0  0  0
   26.9019   17.3902   26.9867 H   0  0  0  0  0  0  0  0  0  0  0  0
   30.2012   14.7632   26.2894 H   0  0  0  0  0  0  0  0  0  0  0  0
   27.8841   11.7438   21.6897 H   0  0  0  0  0  0  0  0  0  0  0  0
   26.8559   10.3086   19.9299 H   0  0  0  0  0  0  0  0  0  0  0  0
   22.2373   14.0068   21.6188 H   0  0  0  0  0  0  0  0  0  0  0  0
   20.7689   13.1257   21.0461 H   0  0  0  0  0  0  0  0  0  0  0  0
  1  2  1  0
  2  3  1  0
  3  4  1  0
  3  5  2  0
  5  6  1  0
  6  7  1  6
  6  8  1  0
  8  9  2  0
  9 10  1  0
 10 11  1  0
 11 12  1  0
 12 13  2  0
 12 14  1  0
 14 15  2  0
 15 16  1  0
 16 17  2  0
 17 18  1  0
 17 19  1  0
 19 20  2  0
 10 21  2  0
 21 22  1  0
 22 23  2  0
 23 24  1  0
  6 25  1  0
 25 26  1  0
 26 27  2  0
 26 28  2  0
 26  2  1  0
 23  8  1  0
 20 14  1  0
  1 29  1  0
  1 30  1  0
  1 31  1  0
  4 32  1  0
  4 33  1  0
  7 34  1  0
  7 35  1  0
  7 36  1  0
  9 37  1  0
 11 38  1  0
 15 39  1  0
 16 40  1  0
 19 41  1  0
 21 42  1  0
 22 43  1  0
 25 44  1  0
 25 45  1  0
M  END
>  <meeko>  (8)
{"is_sidechain": false}

>  <source_group>  (8)
BACE1 canonical

>  <source_system>  (8)
BACE1_verubecestat

>  <source_run>  (8)
canonical_obabel_seed2207_ex32

>  <source_seed>  (8)
2207

>  <vina_pose_rank>  (8)
8

>  <vina_affinity_kcal_mol>  (8)
-7.899

>  <vina_rmsd_to_crystal_angstrom>  (8)
4.8261000000000003

$$$$
BACE1_verubecestat__canonical_obabel_seed2207_ex32__pose09
     RDKit          3D

 45 47  0  0  0  0  0  0  0  0999 V2000
   21.8140   12.7040   21.9150 C   0  0  0  0  0  0  0  0  0  0  0  0
   22.8970   12.0480   21.1560 N   0  0  0  0  0  0  0  0  0  0  0  0
   23.7290   11.0490   21.7090 C   0  0  0  0  0  0  0  0  0  0  0  0
   23.3460   10.6360   22.9570 N   0  0  0  0  0  0  0  0  0  0  0  0
   24.7510   10.5390   21.0940 N   0  0  0  0  0  0  0  0  0  0  0  0
   25.2060   11.0540   19.8030 C   0  0  2  0  0  0  0  0  0  0  0  0
   26.0680    9.9100   19.2620 C   0  0  0  0  0  0  0  0  0  0  0  0
   26.0740   12.2930   19.9570 C   0  0  0  0  0  0  0  0  0  0  0  0
   26.3660   12.8160   21.2150 C   0  0  0  0  0  0  0  0  0  0  0  0
   27.1460   13.9380   21.3840 C   0  0  0  0  0  0  0  0  0  0  0  0
   27.3640   14.3580   22.7020 N   0  0  0  0  0  0  0  0  0  0  0  0
   28.2550   13.8460   23.6290 C   0  0  0  0  0  0  0  0  0  0  0  0
   28.9230   12.8310   23.4770 O   0  0  0  0  0  0  0  0  0  0  0  0
   28.4030   14.6420   24.8710 C   0  0  0  0  0  0  0  0  0  0  0  0
   27.3490   15.4150   25.3270 C   0  0  0  0  0  0  0  0  0  0  0  0
   27.5430   16.1380   26.4900 C   0  0  0  0  0  0  0  0  0  0  0  0
   28.7540   16.0670   27.1510 C   0  0  0  0  0  0  0  0  0  0  0  0
   28.9920   16.7590   28.2780 F   0  0  0  0  0  0  0  0  0  0  0  0
   29.7450   15.2750   26.6160 C   0  0  0  0  0  0  0  0  0  0  0  0
   29.5880   14.5660   25.4860 N   0  0  0  0  0  0  0  0  0  0  0  0
   27.6970   14.5830   20.2830 C   0  0  0  0  0  0  0  0  0  0  0  0
   27.4150   14.0790   19.0260 C   0  0  0  0  0  0  0  0  0  0  0  0
   26.6040   12.9720   18.8710 C   0  0  0  0  0  0  0  0  0  0  0  0
   26.3200   12.5150   17.6240 F   0  0  0  0  0  0  0  0  0  0  0  0
   24.0310   11.2070   18.8620 C   0  0  0  0  0  0  0  0  0  0  0  0
   22.8910   12.4200   19.4750 S   0  0  0  0  0  0  0  0  0  0  0  0
   21.5830   12.0580   18.9590 O   0  0  0  0  0  0  0  0  0  0  0  0
   23.4410   13.7390   19.4150 O   0  0  0  0  0  0  0  0  0  0  0  0
   22.0011   12.5907   22.9930 H   0  0  0  0  0  0  0  0  0  0  0  0
   21.7823   13.7733   21.6588 H   0  0  0  0  0  0  0  0  0  0  0  0
   20.8516   12.2369   21.6588 H   0  0  0  0  0  0  0  0  0  0  0  0
   23.8640    9.9410   23.4260 H   0  0  0  0  0  0  0  0  0  0  0  0
   22.5540   11.0320   23.3860 H   0  0  0  0  0  0  0  0  0  0  0  0
   26.4949    9.3434   20.1026 H   0  0  0  0  0  0  0  0  0  0  0  0
   25.4469    9.2419   18.6473 H   0  0  0  0  0  0  0  0  0  0  0  0
   26.8815   10.3229   18.6473 H   0  0  0  0  0  0  0  0  0  0  0  0
   25.9587   12.3144   22.1053 H   0  0  0  0  0  0  0  0  0  0  0  0
   26.8140   15.1150   23.0080 H   0  0  0  0  0  0  0  0  0  0  0  0
   26.3928   15.4528   24.7846 H   0  0  0  0  0  0  0  0  0  0  0  0
   26.7343   16.7686   26.8880 H   0  0  0  0  0  0  0  0  0  0  0  0
   30.7113   15.2202   27.1388 H   0  0  0  0  0  0  0  0  0  0  0  0
   28.3383   15.4680   20.4075 H   0  0  0  0  0  0  0  0  0  0  0  0
   27.8427   14.5667   18.1376 H   0  0  0  0  0  0  0  0  0  0  0  0
   24.3980   11.5229   17.8743 H   0  0  0  0  0  0  0  0  0  0  0  0
   23.5115   10.2405   18.7847 H   0  0  0  0  0  0  0  0  0  0  0  0
  1  2  1  0
  2  3  1  0
  3  4  1  0
  3  5  2  0
  5  6  1  0
  6  7  1  6
  6  8  1  0
  8  9  2  0
  9 10  1  0
 10 11  1  0
 11 12  1  0
 12 13  2  0
 12 14  1  0
 14 15  2  0
 15 16  1  0
 16 17  2  0
 17 18  1  0
 17 19  1  0
 19 20  2  0
 10 21  2  0
 21 22  1  0
 22 23  2  0
 23 24  1  0
  6 25  1  0
 25 26  1  0
 26 27  2  0
 26 28  2  0
 26  2  1  0
 23  8  1  0
 20 14  1  0
  1 29  1  0
  1 30  1  0
  1 31  1  0
  4 32  1  0
  4 33  1  0
  7 34  1  0
  7 35  1  0
  7 36  1  0
  9 37  1  0
 11 38  1  0
 15 39  1  0
 16 40  1  0
 19 41  1  0
 21 42  1  0
 22 43  1  0
 25 44  1  0
 25 45  1  0
M  END
>  <meeko>  (9)
{"is_sidechain": false}

>  <source_group>  (9)
BACE1 canonical

>  <source_system>  (9)
BACE1_verubecestat

>  <source_run>  (9)
canonical_obabel_seed2207_ex32

>  <source_seed>  (9)
2207

>  <vina_pose_rank>  (9)
9

>  <vina_affinity_kcal_mol>  (9)
-7.7949999999999999

>  <vina_rmsd_to_crystal_angstrom>  (9)
5.3162000000000003

$$$$
BACE1_verubecestat__canonical_obabel_seed2207_ex32__pose10
     RDKit          3D

 45 47  0  0  0  0  0  0  0  0999 V2000
   16.4440   14.8040   25.0320 C   0  0  0  0  0  0  0  0  0  0  0  0
   17.5030   14.6860   26.0540 N   0  0  0  0  0  0  0  0  0  0  0  0
   18.7060   15.4250   26.0050 C   0  0  0  0  0  0  0  0  0  0  0  0
   18.7380   16.3680   25.0140 N   0  0  0  0  0  0  0  0  0  0  0  0
   19.6910   15.2550   26.8320 N   0  0  0  0  0  0  0  0  0  0  0  0
   19.6840   14.1820   27.8250 C   0  0  2  0  0  0  0  0  0  0  0  0
   20.7410   14.6420   28.8340 C   0  0  0  0  0  0  0  0  0  0  0  0
   20.1190   12.8520   27.2310 C   0  0  0  0  0  0  0  0  0  0  0  0
   20.5990   12.7690   25.9250 C   0  0  0  0  0  0  0  0  0  0  0  0
   20.9970   11.5780   25.3610 C   0  0  0  0  0  0  0  0  0  0  0  0
   21.4620   11.6340   24.0410 N   0  0  0  0  0  0  0  0  0  0  0  0
   20.9190   11.0420   22.9140 C   0  0  0  0  0  0  0  0  0  0  0  0
   19.9880   10.2470   22.9160 O   0  0  0  0  0  0  0  0  0  0  0  0
   21.5220   11.4600   21.6260 C   0  0  0  0  0  0  0  0  0  0  0  0
   21.8720   12.7840   21.4240 C   0  0  0  0  0  0  0  0  0  0  0  0
   22.4280   13.1190   20.2020 C   0  0  0  0  0  0  0  0  0  0  0  0
   22.6190   12.1430   19.2420 C   0  0  0  0  0  0  0  0  0  0  0  0
   23.1470   12.4230   18.0380 F   0  0  0  0  0  0  0  0  0  0  0  0
   22.2340   10.8550   19.5340 C   0  0  0  0  0  0  0  0  0  0  0  0
   21.6850   10.5010   20.7080 N   0  0  0  0  0  0  0  0  0  0  0  0
   20.9510   10.4010   26.0970 C   0  0  0  0  0  0  0  0  0  0  0  0
   20.4740   10.4630   27.3940 C   0  0  0  0  0  0  0  0  0  0  0  0
   20.0480   11.6600   27.9370 C   0  0  0  0  0  0  0  0  0  0  0  0
   19.5560   11.6890   29.2020 F   0  0  0  0  0  0  0  0  0  0  0  0
   18.3580   14.1570   28.5530 C   0  0  0  0  0  0  0  0  0  0  0  0
   17.0360   13.7680   27.4340 S   0  0  0  0  0  0  0  0  0  0  0  0
   15.8400   14.3850   27.9760 O   0  0  0  0  0  0  0  0  0  0  0  0
   17.1080   12.4130   26.9830 O   0  0  0  0  0  0  0  0  0  0  0  0
   15.4675   14.9128   25.5267 H   0  0  0  0  0  0  0  0  0  0  0  0
   16.6372   15.6862   24.4040 H   0  0  0  0  0  0  0  0  0  0  0  0
   16.4383   13.9009   24.4040 H   0  0  0  0  0  0  0  0  0  0  0  0
   19.5360   16.9340   24.8990 H   0  0  0  0  0  0  0  0  0  0  0  0
   17.9640   16.4810   24.4150 H   0  0  0  0  0  0  0  0  0  0  0  0
   20.3677   14.4795   29.8559 H   0  0  0  0  0  0  0  0  0  0  0  0
   21.6655   14.0648   28.6853 H   0  0  0  0  0  0  0  0  0  0  0  0
   20.9487   15.7119   28.6853 H   0  0  0  0  0  0  0  0  0  0  0  0
   20.6620   13.6879   25.3236 H   0  0  0  0  0  0  0  0  0  0  0  0
   22.2810   12.1620   23.8960 H   0  0  0  0  0  0  0  0  0  0  0  0
   21.7140   13.5415   22.2058 H   0  0  0  0  0  0  0  0  0  0  0  0
   22.7174   14.1599   19.9949 H   0  0  0  0  0  0  0  0  0  0  0  0
   22.3827   10.0779   18.7698 H   0  0  0  0  0  0  0  0  0  0  0  0
   21.2841    9.4475   25.6613 H   0  0  0  0  0  0  0  0  0  0  0  0
   20.4333    9.5468   28.0014 H   0  0  0  0  0  0  0  0  0  0  0  0
   18.3957   13.3958   29.3461 H   0  0  0  0  0  0  0  0  0  0  0  0
   18.1736   15.1509   28.9868 H   0  0  0  0  0  0  0  0  0  0  0  0
  1  2  1  0
  2  3  1  0
  3  4  1  0
  3  5  2  0
  5  6  1  0
  6  7  1  1
  6  8  1  0
  8  9  2  0
  9 10  1  0
 10 11  1  0
 11 12  1  0
 12 13  2  0
 12 14  1  0
 14 15  2  0
 15 16  1  0
 16 17  2  0
 17 18  1  0
 17 19  1  0
 19 20  2  0
 10 21  2  0
 21 22  1  0
 22 23  2  0
 23 24  1  0
  6 25  1  0
 25 26  1  0
 26 27  2  0
 26 28  2  0
 26  2  1  0
 23  8  1  0
 20 14  1  0
  1 29  1  0
  1 30  1  0
  1 31  1  0
  4 32  1  0
  4 33  1  0
  7 34  1  0
  7 35  1  0
  7 36  1  0
  9 37  1  0
 11 38  1  0
 15 39  1  0
 16 40  1  0
 19 41  1  0
 21 42  1  0
 22 43  1  0
 25 44  1  0
 25 45  1  0
M  END
>  <meeko>  (10)
{"is_sidechain": false}

>  <source_group>  (10)
BACE1 canonical

>  <source_system>  (10)
BACE1_verubecestat

>  <source_run>  (10)
canonical_obabel_seed2207_ex32

>  <source_seed>  (10)
2207

>  <vina_pose_rank>  (10)
10

>  <vina_affinity_kcal_mol>  (10)
-7.7610000000000001

>  <vina_rmsd_to_crystal_angstrom>  (10)
8.0104000000000006

$$$$
BACE1_verubecestat__canonical_obabel_seed2207_ex32__pose11
     RDKit          3D

 45 47  0  0  0  0  0  0  0  0999 V2000
   21.9470   11.4520   19.8820 C   0  0  0  0  0  0  0  0  0  0  0  0
   23.4090   11.2780   19.9820 N   0  0  0  0  0  0  0  0  0  0  0  0
   24.0110   10.1850   20.6450 C   0  0  0  0  0  0  0  0  0  0  0  0
   23.1240    9.2260   21.0530 N   0  0  0  0  0  0  0  0  0  0  0  0
   25.2900   10.0730   20.8360 N   0  0  0  0  0  0  0  0  0  0  0  0
   26.2170   11.1460   20.4810 C   0  0  2  0  0  0  0  0  0  0  0  0
   27.5680   10.4270   20.4240 C   0  0  0  0  0  0  0  0  0  0  0  0
   26.2790   12.2240   21.5510 C   0  0  0  0  0  0  0  0  0  0  0  0
   25.4080   12.2090   22.6400 C   0  0  0  0  0  0  0  0  0  0  0  0
   25.4390   13.1730   23.6220 C   0  0  0  0  0  0  0  0  0  0  0  0
   24.5110   13.0400   24.6620 N   0  0  0  0  0  0  0  0  0  0  0  0
   23.2310   12.5180   24.6070 C   0  0  0  0  0  0  0  0  0  0  0  0
   22.6440   12.1980   23.5820 O   0  0  0  0  0  0  0  0  0  0  0  0
   22.5720   12.3170   25.9210 C   0  0  0  0  0  0  0  0  0  0  0  0
   21.4830   11.4690   26.0250 C   0  0  0  0  0  0  0  0  0  0  0  0
   20.9060   11.3200   27.2740 C   0  0  0  0  0  0  0  0  0  0  0  0
   21.4230   12.0050   28.3570 C   0  0  0  0  0  0  0  0  0  0  0  0
   20.8910   11.8990   29.5860 F   0  0  0  0  0  0  0  0  0  0  0  0
   22.5050   12.8300   28.1520 C   0  0  0  0  0  0  0  0  0  0  0  0
   23.0830   12.9990   26.9510 N   0  0  0  0  0  0  0  0  0  0  0  0
   26.3730   14.2000   23.5690 C   0  0  0  0  0  0  0  0  0  0  0  0
   27.2440   14.2330   22.4940 C   0  0  0  0  0  0  0  0  0  0  0  0
   27.1790   13.2770   21.5000 C   0  0  0  0  0  0  0  0  0  0  0  0
   28.0250   13.3490   20.4400 F   0  0  0  0  0  0  0  0  0  0  0  0
   25.9220   11.6460   19.0840 C   0  0  0  0  0  0  0  0  0  0  0  0
   24.3070   12.3780   19.0080 S   0  0  0  0  0  0  0  0  0  0  0  0
   23.8440   12.2180   17.6410 O   0  0  0  0  0  0  0  0  0  0  0  0
   24.2490   13.6060   19.7370 O   0  0  0  0  0  0  0  0  0  0  0  0
   21.5140   11.5035   20.8919 H   0  0  0  0  0  0  0  0  0  0  0  0
   21.7248   12.3829   19.3398 H   0  0  0  0  0  0  0  0  0  0  0  0
   21.5125   10.5992   19.3398 H   0  0  0  0  0  0  0  0  0  0  0  0
   23.4480    8.4250   21.5250 H   0  0  0  0  0  0  0  0  0  0  0  0
   22.1620    9.3370   20.8750 H   0  0  0  0  0  0  0  0  0  0  0  0
   27.9255   10.2367   21.4467 H   0  0  0  0  0  0  0  0  0  0  0  0
   27.4525    9.4711   19.8922 H   0  0  0  0  0  0  0  0  0  0  0  0
   28.2964   11.0568   19.8922 H   0  0  0  0  0  0  0  0  0  0  0  0
   24.6695   11.3974   22.7170 H   0  0  0  0  0  0  0  0  0  0  0  0
   24.8080   13.3570   25.5460 H   0  0  0  0  0  0  0  0  0  0  0  0
   21.0909   10.9336   25.1477 H   0  0  0  0  0  0  0  0  0  0  0  0
   20.0375   10.6576   27.4044 H   0  0  0  0  0  0  0  0  0  0  0  0
   22.9165   13.3775   29.0128 H   0  0  0  0  0  0  0  0  0  0  0  0
   26.4189   14.9647   24.3584 H   0  0  0  0  0  0  0  0  0  0  0  0
   27.9980   15.0314   22.4307 H   0  0  0  0  0  0  0  0  0  0  0  0
   26.6733   12.3990   18.8038 H   0  0  0  0  0  0  0  0  0  0  0  0
   25.9575   10.7944   18.3886 H   0  0  0  0  0  0  0  0  0  0  0  0
  1  2  1  0
  2  3  1  0
  3  4  1  0
  3  5  2  0
  5  6  1  0
  6  7  1  6
  6  8  1  0
  8  9  2  0
  9 10  1  0
 10 11  1  0
 11 12  1  0
 12 13  2  0
 12 14  1  0
 14 15  2  0
 15 16  1  0
 16 17  2  0
 17 18  1  0
 17 19  1  0
 19 20  2  0
 10 21  2  0
 21 22  1  0
 22 23  2  0
 23 24  1  0
  6 25  1  0
 25 26  1  0
 26 27  2  0
 26 28  2  0
 26  2  1  0
 23  8  1  0
 20 14  1  0
  1 29  1  0
  1 30  1  0
  1 31  1  0
  4 32  1  0
  4 33  1  0
  7 34  1  0
  7 35  1  0
  7 36  1  0
  9 37  1  0
 11 38  1  0
 15 39  1  0
 16 40  1  0
 19 41  1  0
 21 42  1  0
 22 43  1  0
 25 44  1  0
 25 45  1  0
M  END
>  <meeko>  (11)
{"is_sidechain": false}

>  <source_group>  (11)
BACE1 canonical

>  <source_system>  (11)
BACE1_verubecestat

>  <source_run>  (11)
canonical_obabel_seed2207_ex32

>  <source_seed>  (11)
2207

>  <vina_pose_rank>  (11)
11

>  <vina_affinity_kcal_mol>  (11)
-7.4580000000000002

>  <vina_rmsd_to_crystal_angstrom>  (11)
6.8811999999999998

$$$$
BACE1_verubecestat__canonical_obabel_seed2207_ex32__pose12
     RDKit          3D

 45 47  0  0  0  0  0  0  0  0999 V2000
   28.3300   14.8920   25.8600 C   0  0  0  0  0  0  0  0  0  0  0  0
   28.2230   15.1730   24.4150 N   0  0  0  0  0  0  0  0  0  0  0  0
   27.2860   16.0810   23.8740 C   0  0  0  0  0  0  0  0  0  0  0  0
   26.5920   16.7900   24.8180 N   0  0  0  0  0  0  0  0  0  0  0  0
   27.1040   16.2590   22.6020 N   0  0  0  0  0  0  0  0  0  0  0  0
   27.7810   15.4300   21.6060 C   0  0  2  0  0  0  0  0  0  0  0  0
   27.6610   16.2640   20.3270 C   0  0  0  0  0  0  0  0  0  0  0  0
   27.0740   14.1010   21.3940 C   0  0  0  0  0  0  0  0  0  0  0  0
   25.9210   13.7770   22.1070 C   0  0  0  0  0  0  0  0  0  0  0  0
   25.2620   12.5800   21.9370 C   0  0  0  0  0  0  0  0  0  0  0  0
   24.1130   12.3800   22.7140 N   0  0  0  0  0  0  0  0  0  0  0  0
   22.7890   12.4890   22.3280 C   0  0  0  0  0  0  0  0  0  0  0  0
   22.4020   12.9130   21.2470 O   0  0  0  0  0  0  0  0  0  0  0  0
   21.7990   12.0090   23.3230 C   0  0  0  0  0  0  0  0  0  0  0  0
   20.8230   11.1030   22.9450 C   0  0  0  0  0  0  0  0  0  0  0  0
   19.9240   10.6900   23.9130 C   0  0  0  0  0  0  0  0  0  0  0  0
   20.0260   11.1800   25.2000 C   0  0  0  0  0  0  0  0  0  0  0  0
   19.1710   10.8160   26.1710 F   0  0  0  0  0  0  0  0  0  0  0  0
   21.0280   12.0830   25.4780 C   0  0  0  0  0  0  0  0  0  0  0  0
   21.9110   12.5060   24.5590 N   0  0  0  0  0  0  0  0  0  0  0  0
   25.7230   11.6480   21.0150 C   0  0  0  0  0  0  0  0  0  0  0  0
   26.8680   11.9510   20.3010 C   0  0  0  0  0  0  0  0  0  0  0  0
   27.5370   13.1420   20.5050 C   0  0  0  0  0  0  0  0  0  0  0  0
   28.6750   13.4030   19.8130 F   0  0  0  0  0  0  0  0  0  0  0  0
   29.2550   15.3280   21.9310 C   0  0  0  0  0  0  0  0  0  0  0  0
   29.4990   14.4940   23.4790 S   0  0  0  0  0  0  0  0  0  0  0  0
   30.7460   14.9940   24.0270 O   0  0  0  0  0  0  0  0  0  0  0  0
   29.1580   13.1080   23.3910 O   0  0  0  0  0  0  0  0  0  0  0  0
   27.9953   15.7711   26.4303 H   0  0  0  0  0  0  0  0  0  0  0  0
   27.6979   14.0281   26.1133 H   0  0  0  0  0  0  0  0  0  0  0  0
   29.3766   14.6674   26.1133 H   0  0  0  0  0  0  0  0  0  0  0  0
   25.9150   17.4490   24.5390 H   0  0  0  0  0  0  0  0  0  0  0  0
   26.7690   16.6420   25.7750 H   0  0  0  0  0  0  0  0  0  0  0  0
   27.5089   17.3209   20.5914 H   0  0  0  0  0  0  0  0  0  0  0  0
   28.5829   16.1630   19.7355 H   0  0  0  0  0  0  0  0  0  0  0  0
   26.8050   15.9071   19.7355 H   0  0  0  0  0  0  0  0  0  0  0  0
   25.5234   14.5033   22.8312 H   0  0  0  0  0  0  0  0  0  0  0  0
   24.2680   12.1310   23.6530 H   0  0  0  0  0  0  0  0  0  0  0  0
   20.7641   10.7253   21.9136 H   0  0  0  0  0  0  0  0  0  0  0  0
   19.1299    9.9729   23.6576 H   0  0  0  0  0  0  0  0  0  0  0  0
   21.1089   12.4766   26.5020 H   0  0  0  0  0  0  0  0  0  0  0  0
   25.1927   10.6972   20.8577 H   0  0  0  0  0  0  0  0  0  0  0  0
   27.2512   11.2336   19.5604 H   0  0  0  0  0  0  0  0  0  0  0  0
   29.7626   14.7654   21.1336 H   0  0  0  0  0  0  0  0  0  0  0  0
   29.6720   16.3431   22.0062 H   0  0  0  0  0  0  0  0  0  0  0  0
  1  2  1  0
  2  3  1  0
  3  4  1  0
  3  5  2  0
  5  6  1  0
  6  7  1  6
  6  8  1  0
  8  9  2  0
  9 10  1  0
 10 11  1  0
 11 12  1  0
 12 13  2  0
 12 14  1  0
 14 15  2  0
 15 16  1  0
 16 17  2  0
 17 18  1  0
 17 19  1  0
 19 20  2  0
 10 21  2  0
 21 22  1  0
 22 23  2  0
 23 24  1  0
  6 25  1  0
 25 26  1  0
 26 27  2  0
 26 28  2  0
 26  2  1  0
 23  8  1  0
 20 14  1  0
  1 29  1  0
  1 30  1  0
  1 31  1  0
  4 32  1  0
  4 33  1  0
  7 34  1  0
  7 35  1  0
  7 36  1  0
  9 37  1  0
 11 38  1  0
 15 39  1  0
 16 40  1  0
 19 41  1  0
 21 42  1  0
 22 43  1  0
 25 44  1  0
 25 45  1  0
M  END
>  <meeko>  (12)
{"is_sidechain": false}

>  <source_group>  (12)
BACE1 canonical

>  <source_system>  (12)
BACE1_verubecestat

>  <source_run>  (12)
canonical_obabel_seed2207_ex32

>  <source_seed>  (12)
2207

>  <vina_pose_rank>  (12)
12

>  <vina_affinity_kcal_mol>  (12)
-7.4039999999999999

>  <vina_rmsd_to_crystal_angstrom>  (12)
7.8978999999999999

$$$$
BACE1_verubecestat__canonical_obabel_seed2207_ex32__pose13
     RDKit          3D

 45 47  0  0  0  0  0  0  0  0999 V2000
   23.7380   13.8220   18.0910 C   0  0  0  0  0  0  0  0  0  0  0  0
   24.8250   13.1080   18.7900 N   0  0  0  0  0  0  0  0  0  0  0  0
   24.7860   11.7230   19.0620 C   0  0  0  0  0  0  0  0  0  0  0  0
   23.7240   11.0740   18.4890 N   0  0  0  0  0  0  0  0  0  0  0  0
   25.6780   11.1000   19.7680 N   0  0  0  0  0  0  0  0  0  0  0  0
   26.7530   11.8170   20.4530 C   0  0  2  0  0  0  0  0  0  0  0  0
   27.7800   10.7150   20.7270 C   0  0  0  0  0  0  0  0  0  0  0  0
   26.2940   12.4020   21.7790 C   0  0  0  0  0  0  0  0  0  0  0  0
   24.9650   12.3020   22.1890 C   0  0  0  0  0  0  0  0  0  0  0  0
   24.5210   12.8240   23.3830 C   0  0  0  0  0  0  0  0  0  0  0  0
   23.1620   12.6520   23.6770 N   0  0  0  0  0  0  0  0  0  0  0  0
   22.5400   11.5540   24.2440 C   0  0  0  0  0  0  0  0  0  0  0  0
   23.0790   10.4780   24.4690 O   0  0  0  0  0  0  0  0  0  0  0  0
   21.1210   11.7570   24.6240 C   0  0  0  0  0  0  0  0  0  0  0  0
   20.2490   10.6820   24.6340 C   0  0  0  0  0  0  0  0  0  0  0  0
   18.9350   10.9290   24.9950 C   0  0  0  0  0  0  0  0  0  0  0  0
   18.5430   12.2100   25.3310 C   0  0  0  0  0  0  0  0  0  0  0  0
   17.2770   12.4990   25.6780 F   0  0  0  0  0  0  0  0  0  0  0  0
   19.4830   13.2140   25.2850 C   0  0  0  0  0  0  0  0  0  0  0  0
   20.7630   13.0070   24.9340 N   0  0  0  0  0  0  0  0  0  0  0  0
   25.4060   13.4610   24.2440 C   0  0  0  0  0  0  0  0  0  0  0  0
   26.7280   13.5740   23.8520 C   0  0  0  0  0  0  0  0  0  0  0  0
   27.1520   13.0730   22.6370 C   0  0  0  0  0  0  0  0  0  0  0  0
   28.4490   13.2220   22.2620 F   0  0  0  0  0  0  0  0  0  0  0  0
   27.4030   12.8040   19.5080 C   0  0  0  0  0  0  0  0  0  0  0  0
   26.2450   14.0550   19.0140 S   0  0  0  0  0  0  0  0  0  0  0  0
   26.6670   14.5140   17.7030 O   0  0  0  0  0  0  0  0  0  0  0  0
   25.9100   14.9220   20.1000 O   0  0  0  0  0  0  0  0  0  0  0  0
   23.0577   14.2689   18.8309 H   0  0  0  0  0  0  0  0  0  0  0  0
   24.1663   14.6152   17.4607 H   0  0  0  0  0  0  0  0  0  0  0  0
   23.1802   13.1139   17.4607 H   0  0  0  0  0  0  0  0  0  0  0  0
   23.6110   10.1050   18.6220 H   0  0  0  0  0  0  0  0  0  0  0  0
   23.0760   11.5760   17.9450 H   0  0  0  0  0  0  0  0  0  0  0  0
   27.8994   10.5869   21.8130 H   0  0  0  0  0  0  0  0  0  0  0  0
   27.4322    9.7709   20.2824 H   0  0  0  0  0  0  0  0  0  0  0  0
   28.7463   10.9955   20.2824 H   0  0  0  0  0  0  0  0  0  0  0  0
   24.2456   11.7876   21.5350 H   0  0  0  0  0  0  0  0  0  0  0  0
   22.5750   13.4090   23.4500 H   0  0  0  0  0  0  0  0  0  0  0  0
   20.5868    9.6702   24.3655 H   0  0  0  0  0  0  0  0  0  0  0  0
   18.2049   10.1065   25.0141 H   0  0  0  0  0  0  0  0  0  0  0  0
   19.1711   14.2355   25.5484 H   0  0  0  0  0  0  0  0  0  0  0  0
   25.0655   13.8638   25.2093 H   0  0  0  0  0  0  0  0  0  0  0  0
   27.4508   14.0694   24.5169 H   0  0  0  0  0  0  0  0  0  0  0  0
   28.2556   13.2806   20.0140 H   0  0  0  0  0  0  0  0  0  0  0  0
   27.7441   12.2642   18.6123 H   0  0  0  0  0  0  0  0  0  0  0  0
  1  2  1  0
  2  3  1  0
  3  4  1  0
  3  5  2  0
  5  6  1  0
  6  7  1  1
  6  8  1  0
  8  9  2  0
  9 10  1  0
 10 11  1  0
 11 12  1  0
 12 13  2  0
 12 14  1  0
 14 15  2  0
 15 16  1  0
 16 17  2  0
 17 18  1  0
 17 19  1  0
 19 20  2  0
 10 21  2  0
 21 22  1  0
 22 23  2  0
 23 24  1  0
  6 25  1  0
 25 26  1  0
 26 27  2  0
 26 28  2  0
 26  2  1  0
 23  8  1  0
 20 14  1  0
  1 29  1  0
  1 30  1  0
  1 31  1  0
  4 32  1  0
  4 33  1  0
  7 34  1  0
  7 35  1  0
  7 36  1  0
  9 37  1  0
 11 38  1  0
 15 39  1  0
 16 40  1  0
 19 41  1  0
 21 42  1  0
 22 43  1  0
 25 44  1  0
 25 45  1  0
M  END
>  <meeko>  (13)
{"is_sidechain": false}

>  <source_group>  (13)
BACE1 canonical

>  <source_system>  (13)
BACE1_verubecestat

>  <source_run>  (13)
canonical_obabel_seed2207_ex32

>  <source_seed>  (13)
2207

>  <vina_pose_rank>  (13)
13

>  <vina_affinity_kcal_mol>  (13)
-7.3659999999999997

>  <vina_rmsd_to_crystal_angstrom>  (13)
7.8802000000000003

$$$$
BACE1_verubecestat__canonical_obabel_seed2207_ex32__pose14
     RDKit          3D

 45 47  0  0  0  0  0  0  0  0999 V2000
   24.5840   13.9630   19.5350 C   0  0  0  0  0  0  0  0  0  0  0  0
   23.7640   12.7500   19.7200 N   0  0  0  0  0  0  0  0  0  0  0  0
   22.3730   12.7160   19.4730 C   0  0  0  0  0  0  0  0  0  0  0  0
   21.8820   13.8600   18.9040 N   0  0  0  0  0  0  0  0  0  0  0  0
   21.6200   11.6920   19.7330 N   0  0  0  0  0  0  0  0  0  0  0  0
   22.1370   10.5140   20.4270 C   0  0  2  0  0  0  0  0  0  0  0  0
   21.0990    9.4380   20.0940 C   0  0  0  0  0  0  0  0  0  0  0  0
   22.1740   10.7100   21.9350 C   0  0  0  0  0  0  0  0  0  0  0  0
   21.4750   11.7520   22.5430 C   0  0  0  0  0  0  0  0  0  0  0  0
   21.4940   11.9550   23.9040 C   0  0  0  0  0  0  0  0  0  0  0  0
   20.7460   13.0360   24.3880 N   0  0  0  0  0  0  0  0  0  0  0  0
   19.5120   13.0140   25.0120 C   0  0  0  0  0  0  0  0  0  0  0  0
   18.7990   12.0260   25.1290 O   0  0  0  0  0  0  0  0  0  0  0  0
   19.0760   14.3050   25.5990 C   0  0  0  0  0  0  0  0  0  0  0  0
   17.9110   14.9070   25.1560 C   0  0  0  0  0  0  0  0  0  0  0  0
   17.5530   16.1100   25.7370 C   0  0  0  0  0  0  0  0  0  0  0  0
   18.3480   16.6620   26.7220 C   0  0  0  0  0  0  0  0  0  0  0  0
   18.0450   17.8330   27.3090 F   0  0  0  0  0  0  0  0  0  0  0  0
   19.4910   15.9910   27.0920 C   0  0  0  0  0  0  0  0  0  0  0  0
   19.8680   14.8240   26.5420 N   0  0  0  0  0  0  0  0  0  0  0  0
   22.2060   11.0980   24.7330 C   0  0  0  0  0  0  0  0  0  0  0  0
   22.9090   10.0600   24.1470 C   0  0  0  0  0  0  0  0  0  0  0  0
   22.9070    9.8880   22.7770 C   0  0  0  0  0  0  0  0  0  0  0  0
   23.6290    8.8790   22.2230 F   0  0  0  0  0  0  0  0  0  0  0  0
   23.4440   10.0770   19.8050 C   0  0  0  0  0  0  0  0  0  0  0  0
   24.6870   11.3270   20.0140 S   0  0  0  0  0  0  0  0  0  0  0  0
   25.6140   11.1790   18.9060 O   0  0  0  0  0  0  0  0  0  0  0  0
   25.0830   11.4530   21.3820 O   0  0  0  0  0  0  0  0  0  0  0  0
   24.8605   14.3721   20.5179 H   0  0  0  0  0  0  0  0  0  0  0  0
   25.4954   13.7075   18.9746 H   0  0  0  0  0  0  0  0  0  0  0  0
   24.0072   14.7135   18.9746 H   0  0  0  0  0  0  0  0  0  0  0  0
   20.9230   13.9320   18.6940 H   0  0  0  0  0  0  0  0  0  0  0  0
   22.4870   14.6100   18.7040 H   0  0  0  0  0  0  0  0  0  0  0  0
   20.6940    9.0182   21.0266 H   0  0  0  0  0  0  0  0  0  0  0  0
   20.2824    9.8851   19.5081 H   0  0  0  0  0  0  0  0  0  0  0  0
   21.5752    8.6380   19.5081 H   0  0  0  0  0  0  0  0  0  0  0  0
   20.8877   12.4359   21.9126 H   0  0  0  0  0  0  0  0  0  0  0  0
   21.1510   13.9260   24.2680 H   0  0  0  0  0  0  0  0  0  0  0  0
   17.2931   14.4460   24.3714 H   0  0  0  0  0  0  0  0  0  0  0  0
   16.6366   16.6262   25.4150 H   0  0  0  0  0  0  0  0  0  0  0  0
   20.1263   16.4306   27.8751 H   0  0  0  0  0  0  0  0  0  0  0  0
   22.2110   11.2401   25.8238 H   0  0  0  0  0  0  0  0  0  0  0  0
   23.4767    9.3629   24.7808 H   0  0  0  0  0  0  0  0  0  0  0  0
   23.7811    9.1481   20.2882 H   0  0  0  0  0  0  0  0  0  0  0  0
   23.2859    9.9117   18.7290 H   0  0  0  0  0  0  0  0  0  0  0  0
  1  2  1  0
  2  3  1  0
  3  4  1  0
  3  5  2  0
  5  6  1  0
  6  7  1  1
  6  8  1  0
  8  9  2  0
  9 10  1  0
 10 11  1  0
 11 12  1  0
 12 13  2  0
 12 14  1  0
 14 15  2  0
 15 16  1  0
 16 17  2  0
 17 18  1  0
 17 19  1  0
 19 20  2  0
 10 21  2  0
 21 22  1  0
 22 23  2  0
 23 24  1  0
  6 25  1  0
 25 26  1  0
 26 27  2  0
 26 28  2  0
 26  2  1  0
 23  8  1  0
 20 14  1  0
  1 29  1  0
  1 30  1  0
  1 31  1  0
  4 32  1  0
  4 33  1  0
  7 34  1  0
  7 35  1  0
  7 36  1  0
  9 37  1  0
 11 38  1  0
 15 39  1  0
 16 40  1  0
 19 41  1  0
 21 42  1  0
 22 43  1  0
 25 44  1  0
 25 45  1  0
M  END
>  <meeko>  (14)
{"is_sidechain": false}

>  <source_group>  (14)
BACE1 canonical

>  <source_system>  (14)
BACE1_verubecestat

>  <source_run>  (14)
canonical_obabel_seed2207_ex32

>  <source_seed>  (14)
2207

>  <vina_pose_rank>  (14)
14

>  <vina_affinity_kcal_mol>  (14)
-7.343

>  <vina_rmsd_to_crystal_angstrom>  (14)
8.5007999999999999

$$$$
BACE1_verubecestat__canonical_obabel_seed2207_ex32__pose15
     RDKit          3D

 45 47  0  0  0  0  0  0  0  0999 V2000
   17.0370   17.9870   27.2080 C   0  0  0  0  0  0  0  0  0  0  0  0
   16.7150   16.6450   26.6840 N   0  0  0  0  0  0  0  0  0  0  0  0
   16.0300   15.6670   27.4400 C   0  0  0  0  0  0  0  0  0  0  0  0
   15.5580   16.1240   28.6410 N   0  0  0  0  0  0  0  0  0  0  0  0
   15.8340   14.4500   27.0370 N   0  0  0  0  0  0  0  0  0  0  0  0
   16.4230   13.9480   25.7960 C   0  0  2  0  0  0  0  0  0  0  0  0
   15.5760   12.7090   25.4920 C   0  0  0  0  0  0  0  0  0  0  0  0
   17.8700   13.5190   25.9840 C   0  0  0  0  0  0  0  0  0  0  0  0
   18.6950   13.2720   24.8880 C   0  0  0  0  0  0  0  0  0  0  0  0
   20.0080   12.8800   25.0290 C   0  0  0  0  0  0  0  0  0  0  0  0
   20.7290   12.6660   23.8470 N   0  0  0  0  0  0  0  0  0  0  0  0
   20.7100   11.5570   23.0200 C   0  0  0  0  0  0  0  0  0  0  0  0
   20.1380   10.5030   23.2680 O   0  0  0  0  0  0  0  0  0  0  0  0
   21.4230   11.7160   21.7300 C   0  0  0  0  0  0  0  0  0  0  0  0
   21.8230   12.9740   21.3120 C   0  0  0  0  0  0  0  0  0  0  0  0
   22.4820   13.0650   20.0990 C   0  0  0  0  0  0  0  0  0  0  0  0
   22.7220   11.9240   19.3590 C   0  0  0  0  0  0  0  0  0  0  0  0
   23.3500   11.9640   18.1710 F   0  0  0  0  0  0  0  0  0  0  0  0
   22.2810   10.7180   19.8550 C   0  0  0  0  0  0  0  0  0  0  0  0
   21.6330   10.5990   21.0260 N   0  0  0  0  0  0  0  0  0  0  0  0
   20.5680   12.7380   26.2920 C   0  0  0  0  0  0  0  0  0  0  0  0
   19.7620   12.9770   27.3910 C   0  0  0  0  0  0  0  0  0  0  0  0
   18.4390   13.3380   27.2350 C   0  0  0  0  0  0  0  0  0  0  0  0
   17.6610   13.5370   28.3310 F   0  0  0  0  0  0  0  0  0  0  0  0
   16.1870   14.9330   24.6730 C   0  0  0  0  0  0  0  0  0  0  0  0
   17.0180   16.4670   24.9990 S   0  0  0  0  0  0  0  0  0  0  0  0
   16.2630   17.5010   24.3150 O   0  0  0  0  0  0  0  0  0  0  0  0
   18.4390   16.3240   24.9210 O   0  0  0  0  0  0  0  0  0  0  0  0
   17.0311   17.9624   28.3077 H   0  0  0  0  0  0  0  0  0  0  0  0
   18.0333   18.2898   26.8534 H   0  0  0  0  0  0  0  0  0  0  0  0
   16.2866   18.7089   26.8534 H   0  0  0  0  0  0  0  0  0  0  0  0
   15.0670   15.5160   29.2400 H   0  0  0  0  0  0  0  0  0  0  0  0
   15.7100   17.0600   28.9070 H   0  0  0  0  0  0  0  0  0  0  0  0
   15.2570   12.2424   26.4357 H   0  0  0  0  0  0  0  0  0  0  0  0
   14.6898   13.0042   24.9110 H   0  0  0  0  0  0  0  0  0  0  0  0
   16.1727   11.9904   24.9110 H   0  0  0  0  0  0  0  0  0  0  0  0
   18.2833   13.3944   23.8753 H   0  0  0  0  0  0  0  0  0  0  0  0
   21.3240   13.3990   23.5680 H   0  0  0  0  0  0  0  0  0  0  0  0
   21.6242   13.8677   21.9217 H   0  0  0  0  0  0  0  0  0  0  0  0
   22.8142   14.0445   19.7246 H   0  0  0  0  0  0  0  0  0  0  0  0
   22.4679    9.8088   19.2648 H   0  0  0  0  0  0  0  0  0  0  0  0
   21.6209   12.4443   26.4150 H   0  0  0  0  0  0  0  0  0  0  0  0
   20.1815   12.8779   28.4030 H   0  0  0  0  0  0  0  0  0  0  0  0
   16.5694   14.5077   23.7334 H   0  0  0  0  0  0  0  0  0  0  0  0
   15.1070   15.1259   24.5929 H   0  0  0  0  0  0  0  0  0  0  0  0
  1  2  1  0
  2  3  1  0
  3  4  1  0
  3  5  2  0
  5  6  1  0
  6  7  1  6
  6  8  1  0
  8  9  2  0
  9 10  1  0
 10 11  1  0
 11 12  1  0
 12 13  2  0
 12 14  1  0
 14 15  2  0
 15 16  1  0
 16 17  2  0
 17 18  1  0
 17 19  1  0
 19 20  2  0
 10 21  2  0
 21 22  1  0
 22 23  2  0
 23 24  1  0
  6 25  1  0
 25 26  1  0
 26 27  2  0
 26 28  2  0
 26  2  1  0
 23  8  1  0
 20 14  1  0
  1 29  1  0
  1 30  1  0
  1 31  1  0
  4 32  1  0
  4 33  1  0
  7 34  1  0
  7 35  1  0
  7 36  1  0
  9 37  1  0
 11 38  1  0
 15 39  1  0
 16 40  1  0
 19 41  1  0
 21 42  1  0
 22 43  1  0
 25 44  1  0
 25 45  1  0
M  END
>  <meeko>  (15)
{"is_sidechain": false}

>  <source_group>  (15)
BACE1 canonical

>  <source_system>  (15)
BACE1_verubecestat

>  <source_run>  (15)
canonical_obabel_seed2207_ex32

>  <source_seed>  (15)
2207

>  <vina_pose_rank>  (15)
15

>  <vina_affinity_kcal_mol>  (15)
-7.3129999999999997

>  <vina_rmsd_to_crystal_angstrom>  (15)
8.3300999999999998

$$$$
BACE1_verubecestat__canonical_obabel_seed2207_ex32__pose16
     RDKit          3D

 45 47  0  0  0  0  0  0  0  0999 V2000
   24.6580   13.3250   19.3040 C   0  0  0  0  0  0  0  0  0  0  0  0
   25.9910   13.0280   19.8630 N   0  0  0  0  0  0  0  0  0  0  0  0
   26.3830   11.7340   20.2730 C   0  0  0  0  0  0  0  0  0  0  0  0
   25.4770   10.7550   19.9650 N   0  0  0  0  0  0  0  0  0  0  0  0
   27.5080   11.4740   20.8650 N   0  0  0  0  0  0  0  0  0  0  0  0
   28.4240   12.5380   21.2730 C   0  0  2  0  0  0  0  0  0  0  0  0
   29.7490   11.7940   21.4670 C   0  0  0  0  0  0  0  0  0  0  0  0
   28.0160   13.1660   22.5970 C   0  0  0  0  0  0  0  0  0  0  0  0
   26.8080   12.8350   23.2080 C   0  0  0  0  0  0  0  0  0  0  0  0
   26.4120   13.3900   24.4040 C   0  0  0  0  0  0  0  0  0  0  0  0
   25.1750   12.9700   24.9120 N   0  0  0  0  0  0  0  0  0  0  0  0
   24.0380   12.6100   24.2100 C   0  0  0  0  0  0  0  0  0  0  0  0
   23.8910   12.7270   23.0010 O   0  0  0  0  0  0  0  0  0  0  0  0
   22.9550   12.0080   25.0250 C   0  0  0  0  0  0  0  0  0  0  0  0
   22.2400   10.9290   24.5360 C   0  0  0  0  0  0  0  0  0  0  0  0
   21.2400   10.4080   25.3380 C   0  0  0  0  0  0  0  0  0  0  0  0
   20.9910   10.9660   26.5770 C   0  0  0  0  0  0  0  0  0  0  0  0
   20.0240   10.5000   27.3860 F   0  0  0  0  0  0  0  0  0  0  0  0
   21.7520   12.0420   26.9740 C   0  0  0  0  0  0  0  0  0  0  0  0
   22.7260   12.5720   26.2150 N   0  0  0  0  0  0  0  0  0  0  0  0
   27.2300   14.2980   25.0640 C   0  0  0  0  0  0  0  0  0  0  0  0
   28.4330   14.6400   24.4700 C   0  0  0  0  0  0  0  0  0  0  0  0
   28.8020   14.1000   23.2540 C   0  0  0  0  0  0  0  0  0  0  0  0
   29.9740   14.4740   22.6790 F   0  0  0  0  0  0  0  0  0  0  0  0
   28.6260   13.5140   20.1360 C   0  0  0  0  0  0  0  0  0  0  0  0
   27.1040   14.3350   19.7370 S   0  0  0  0  0  0  0  0  0  0  0  0
   27.1840   14.6960   18.3330 O   0  0  0  0  0  0  0  0  0  0  0  0
   26.6990   15.2300   20.7750 O   0  0  0  0  0  0  0  0  0  0  0  0
   23.9433   13.4842   20.1249 H   0  0  0  0  0  0  0  0  0  0  0  0
   24.7138   14.2327   18.6852 H   0  0  0  0  0  0  0  0  0  0  0  0
   24.3232   12.4794   18.6852 H   0  0  0  0  0  0  0  0  0  0  0  0
   25.6610    9.8190   20.2090 H   0  0  0  0  0  0  0  0  0  0  0  0
   24.6410   10.9870   19.4980 H   0  0  0  0  0  0  0  0  0  0  0  0
   29.9516   11.6802   22.5422 H   0  0  0  0  0  0  0  0  0  0  0  0
   29.6837   10.8006   20.9991 H   0  0  0  0  0  0  0  0  0  0  0  0
   30.5631   12.3669   20.9991 H   0  0  0  0  0  0  0  0  0  0  0  0
   26.1478   12.1047   22.7174 H   0  0  0  0  0  0  0  0  0  0  0  0
   25.1070   12.9260   25.8930 H   0  0  0  0  0  0  0  0  0  0  0  0
   22.4585   10.5013   23.5464 H   0  0  0  0  0  0  0  0  0  0  0  0
   20.6445    9.5512   24.9897 H   0  0  0  0  0  0  0  0  0  0  0  0
   21.5535   12.4892   27.9592 H   0  0  0  0  0  0  0  0  0  0  0  0
   26.9311   14.7323   26.0294 H   0  0  0  0  0  0  0  0  0  0  0  0
   29.1039   15.3515   24.9737 H   0  0  0  0  0  0  0  0  0  0  0  0
   29.3741   14.2640   20.4324 H   0  0  0  0  0  0  0  0  0  0  0  0
   28.9717   12.9597   19.2510 H   0  0  0  0  0  0  0  0  0  0  0  0
  1  2  1  0
  2  3  1  0
  3  4  1  0
  3  5  2  0
  5  6  1  0
  6  7  1  1
  6  8  1  0
  8  9  2  0
  9 10  1  0
 10 11  1  0
 11 12  1  0
 12 13  2  0
 12 14  1  0
 14 15  2  0
 15 16  1  0
 16 17  2  0
 17 18  1  0
 17 19  1  0
 19 20  2  0
 10 21  2  0
 21 22  1  0
 22 23  2  0
 23 24  1  0
  6 25  1  0
 25 26  1  0
 26 27  2  0
 26 28  2  0
 26  2  1  0
 23  8  1  0
 20 14  1  0
  1 29  1  0
  1 30  1  0
  1 31  1  0
  4 32  1  0
  4 33  1  0
  7 34  1  0
  7 35  1  0
  7 36  1  0
  9 37  1  0
 11 38  1  0
 15 39  1  0
 16 40  1  0
 19 41  1  0
 21 42  1  0
 22 43  1  0
 25 44  1  0
 25 45  1  0
M  END
>  <meeko>  (16)
{"is_sidechain": false}

>  <source_group>  (16)
BACE1 canonical

>  <source_system>  (16)
BACE1_verubecestat

>  <source_run>  (16)
canonical_obabel_seed2207_ex32

>  <source_seed>  (16)
2207

>  <vina_pose_rank>  (16)
16

>  <vina_affinity_kcal_mol>  (16)
-7.2359999999999998

>  <vina_rmsd_to_crystal_angstrom>  (16)
7.6471999999999998

$$$$
BACE1_verubecestat__canonical_obabel_seed2207_ex32__pose17
     RDKit          3D

 45 47  0  0  0  0  0  0  0  0999 V2000
   27.5070   15.9340   24.5140 C   0  0  0  0  0  0  0  0  0  0  0  0
   28.2330   15.5700   23.2810 N   0  0  0  0  0  0  0  0  0  0  0  0
   27.8370   16.0050   21.9970 C   0  0  0  0  0  0  0  0  0  0  0  0
   26.8140   16.9150   22.0100 N   0  0  0  0  0  0  0  0  0  0  0  0
   28.3960   15.6090   20.8960 N   0  0  0  0  0  0  0  0  0  0  0  0
   29.4220   14.5670   20.8870 C   0  0  2  0  0  0  0  0  0  0  0  0
   30.1010   14.7650   19.5290 C   0  0  0  0  0  0  0  0  0  0  0  0
   28.8200   13.1720   20.9360 C   0  0  0  0  0  0  0  0  0  0  0  0
   27.4690   12.9810   21.2230 C   0  0  0  0  0  0  0  0  0  0  0  0
   26.8970   11.7300   21.2770 C   0  0  0  0  0  0  0  0  0  0  0  0
   25.5290   11.6770   21.5730 N   0  0  0  0  0  0  0  0  0  0  0  0
   24.4650   11.5670   20.6950 C   0  0  0  0  0  0  0  0  0  0  0  0
   24.5500   11.6290   19.4750 O   0  0  0  0  0  0  0  0  0  0  0  0
   23.1460   11.3220   21.3260 C   0  0  0  0  0  0  0  0  0  0  0  0
   22.3620   12.3910   21.7250 C   0  0  0  0  0  0  0  0  0  0  0  0
   21.1410   12.1050   22.3100 C   0  0  0  0  0  0  0  0  0  0  0  0
   20.7470   10.7900   22.4720 C   0  0  0  0  0  0  0  0  0  0  0  0
   19.5750   10.4640   23.0430 F   0  0  0  0  0  0  0  0  0  0  0  0
   21.5990    9.7960   22.0480 C   0  0  0  0  0  0  0  0  0  0  0  0
   22.7920   10.0430   21.4820 N   0  0  0  0  0  0  0  0  0  0  0  0
   27.6590   10.5970   21.0190 C   0  0  0  0  0  0  0  0  0  0  0  0
   29.0020   10.7670   20.7360 C   0  0  0  0  0  0  0  0  0  0  0  0
   29.5690   12.0260   20.7170 C   0  0  0  0  0  0  0  0  0  0  0  0
   30.8960   12.1640   20.4650 F   0  0  0  0  0  0  0  0  0  0  0  0
   30.4620   14.8540   21.9480 C   0  0  0  0  0  0  0  0  0  0  0  0
   29.7390   14.7870   23.5680 S   0  0  0  0  0  0  0  0  0  0  0  0
   30.5280   15.6680   24.4100 O   0  0  0  0  0  0  0  0  0  0  0  0
   29.3680   13.4530   23.9260 O   0  0  0  0  0  0  0  0  0  0  0  0
   28.1009   15.6362   25.3907 H   0  0  0  0  0  0  0  0  0  0  0  0
   27.3421   17.0214   24.5350 H   0  0  0  0  0  0  0  0  0  0  0  0
   26.5370   15.4156   24.5350 H   0  0  0  0  0  0  0  0  0  0  0  0
   26.4670   17.2780   21.1630 H   0  0  0  0  0  0  0  0  0  0  0  0
   26.4250   17.2070   22.8660 H   0  0  0  0  0  0  0  0  0  0  0  0
   31.1466   15.0699   19.6829 H   0  0  0  0  0  0  0  0  0  0  0  0
   30.0735   13.8214   18.9643 H   0  0  0  0  0  0  0  0  0  0  0  0
   29.5707   15.5459   18.9643 H   0  0  0  0  0  0  0  0  0  0  0  0
   26.8376   13.8615   21.4131 H   0  0  0  0  0  0  0  0  0  0  0  0
   25.2950   11.7240   22.5280 H   0  0  0  0  0  0  0  0  0  0  0  0
   22.6971   13.4289   21.5823 H   0  0  0  0  0  0  0  0  0  0  0  0
   20.4855   12.9222   22.6453 H   0  0  0  0  0  0  0  0  0  0  0  0
   21.2883    8.7489   22.1788 H   0  0  0  0  0  0  0  0  0  0  0  0
   27.2072    9.5943   21.0393 H   0  0  0  0  0  0  0  0  0  0  0  0
   29.6271    9.8873   20.5231 H   0  0  0  0  0  0  0  0  0  0  0  0
   31.2645   14.1048   21.8793 H   0  0  0  0  0  0  0  0  0  0  0  0
   30.8674   15.8631   21.7826 H   0  0  0  0  0  0  0  0  0  0  0  0
  1  2  1  0
  2  3  1  0
  3  4  1  0
  3  5  2  0
  5  6  1  0
  6  7  1  6
  6  8  1  0
  8  9  2  0
  9 10  1  0
 10 11  1  0
 11 12  1  0
 12 13  2  0
 12 14  1  0
 14 15  2  0
 15 16  1  0
 16 17  2  0
 17 18  1  0
 17 19  1  0
 19 20  2  0
 10 21  2  0
 21 22  1  0
 22 23  2  0
 23 24  1  0
  6 25  1  0
 25 26  1  0
 26 27  2  0
 26 28  2  0
 26  2  1  0
 23  8  1  0
 20 14  1  0
  1 29  1  0
  1 30  1  0
  1 31  1  0
  4 32  1  0
  4 33  1  0
  7 34  1  0
  7 35  1  0
  7 36  1  0
  9 37  1  0
 11 38  1  0
 15 39  1  0
 16 40  1  0
 19 41  1  0
 21 42  1  0
 22 43  1  0
 25 44  1  0
 25 45  1  0
M  END
>  <meeko>  (17)
{"is_sidechain": false}

>  <source_group>  (17)
BACE1 canonical

>  <source_system>  (17)
BACE1_verubecestat

>  <source_run>  (17)
canonical_obabel_seed2207_ex32

>  <source_seed>  (17)
2207

>  <vina_pose_rank>  (17)
17

>  <vina_affinity_kcal_mol>  (17)
-7.1989999999999998

>  <vina_rmsd_to_crystal_angstrom>  (17)
7.8446999999999996

$$$$
BACE1_verubecestat__canonical_obabel_seed2207_ex32__pose18
     RDKit          3D

 45 47  0  0  0  0  0  0  0  0999 V2000
   29.9250   15.5690   22.4690 C   0  0  0  0  0  0  0  0  0  0  0  0
   29.3830   14.2640   22.0400 N   0  0  0  0  0  0  0  0  0  0  0  0
   29.9710   13.4840   21.0200 C   0  0  0  0  0  0  0  0  0  0  0  0
   31.1700   13.9690   20.5710 N   0  0  0  0  0  0  0  0  0  0  0  0
   29.4490   12.3900   20.5570 N   0  0  0  0  0  0  0  0  0  0  0  0
   28.1250   11.9330   20.9760 C   0  0  2  0  0  0  0  0  0  0  0  0
   28.1330   10.4530   20.5820 C   0  0  0  0  0  0  0  0  0  0  0  0
   27.0120   12.6380   20.2170 C   0  0  0  0  0  0  0  0  0  0  0  0
   27.2950   13.5060   19.1630 C   0  0  0  0  0  0  0  0  0  0  0  0
   26.3080   14.1590   18.4610 C   0  0  0  0  0  0  0  0  0  0  0  0
   26.7280   15.0010   17.4240 N   0  0  0  0  0  0  0  0  0  0  0  0
   27.2930   16.2610   17.5180 C   0  0  0  0  0  0  0  0  0  0  0  0
   27.4000   16.9090   18.5510 O   0  0  0  0  0  0  0  0  0  0  0  0
   27.8260   16.8120   16.2490 C   0  0  0  0  0  0  0  0  0  0  0  0
   28.6950   16.0580   15.4790 C   0  0  0  0  0  0  0  0  0  0  0  0
   29.1640   16.6220   14.3050 C   0  0  0  0  0  0  0  0  0  0  0  0
   28.7580   17.8920   13.9420 C   0  0  0  0  0  0  0  0  0  0  0  0
   29.1930   18.4840   12.8170 F   0  0  0  0  0  0  0  0  0  0  0  0
   27.8950   18.5660   14.7770 C   0  0  0  0  0  0  0  0  0  0  0  0
   27.4280   18.0470   15.9250 N   0  0  0  0  0  0  0  0  0  0  0  0
   24.9700   13.9520   18.7720 C   0  0  0  0  0  0  0  0  0  0  0  0
   24.6700   13.0970   19.8170 C   0  0  0  0  0  0  0  0  0  0  0  0
   25.6720   12.4730   20.5330 C   0  0  0  0  0  0  0  0  0  0  0  0
   25.3510   11.6610   21.5730 F   0  0  0  0  0  0  0  0  0  0  0  0
   28.0090   11.9900   22.4830 C   0  0  0  0  0  0  0  0  0  0  0  0
   28.1310   13.6650   23.0580 S   0  0  0  0  0  0  0  0  0  0  0  0
   28.6670   13.6010   24.4060 O   0  0  0  0  0  0  0  0  0  0  0  0
   26.9870   14.4360   22.6840 O   0  0  0  0  0  0  0  0  0  0  0  0
   29.9440   15.6148   23.5679 H   0  0  0  0  0  0  0  0  0  0  0  0
   30.9468   15.6876   22.0793 H   0  0  0  0  0  0  0  0  0  0  0  0
   29.2879   16.3766   22.0793 H   0  0  0  0  0  0  0  0  0  0  0  0
   31.6580   13.4930   19.8600 H   0  0  0  0  0  0  0  0  0  0  0  0
   31.5450   14.7930   20.9590 H   0  0  0  0  0  0  0  0  0  0  0  0
   28.1364    9.8319   21.4899 H   0  0  0  0  0  0  0  0  0  0  0  0
   27.2361   10.2272   19.9866 H   0  0  0  0  0  0  0  0  0  0  0  0
   29.0323   10.2369   19.9866 H   0  0  0  0  0  0  0  0  0  0  0  0
   28.3452   13.6748   18.8826 H   0  0  0  0  0  0  0  0  0  0  0  0
   26.6070   14.6520   16.5110 H   0  0  0  0  0  0  0  0  0  0  0  0
   29.0015   15.0480   15.7887 H   0  0  0  0  0  0  0  0  0  0  0  0
   29.8583   16.0605   13.6626 H   0  0  0  0  0  0  0  0  0  0  0  0
   27.5725   19.5779   14.4904 H   0  0  0  0  0  0  0  0  0  0  0  0
   24.1726   14.4533   18.2039 H   0  0  0  0  0  0  0  0  0  0  0  0
   23.6184   12.9116   20.0813 H   0  0  0  0  0  0  0  0  0  0  0  0
   27.0370   11.5738   22.7865 H   0  0  0  0  0  0  0  0  0  0  0  0
   28.8290   11.4039   22.9235 H   0  0  0  0  0  0  0  0  0  0  0  0
  1  2  1  0
  2  3  1  0
  3  4  1  0
  3  5  2  0
  5  6  1  0
  6  7  1  6
  6  8  1  0
  8  9  2  0
  9 10  1  0
 10 11  1  0
 11 12  1  0
 12 13  2  0
 12 14  1  0
 14 15  2  0
 15 16  1  0
 16 17  2  0
 17 18  1  0
 17 19  1  0
 19 20  2  0
 10 21  2  0
 21 22  1  0
 22 23  2  0
 23 24  1  0
  6 25  1  0
 25 26  1  0
 26 27  2  0
 26 28  2  0
 26  2  1  0
 23  8  1  0
 20 14  1  0
  1 29  1  0
  1 30  1  0
  1 31  1  0
  4 32  1  0
  4 33  1  0
  7 34  1  0
  7 35  1  0
  7 36  1  0
  9 37  1  0
 11 38  1  0
 15 39  1  0
 16 40  1  0
 19 41  1  0
 21 42  1  0
 22 43  1  0
 25 44  1  0
 25 45  1  0
M  END
>  <meeko>  (18)
{"is_sidechain": false}

>  <source_group>  (18)
BACE1 canonical

>  <source_system>  (18)
BACE1_verubecestat

>  <source_run>  (18)
canonical_obabel_seed2207_ex32

>  <source_seed>  (18)
2207

>  <vina_pose_rank>  (18)
18

>  <vina_affinity_kcal_mol>  (18)
-7.1799999999999997

>  <vina_rmsd_to_crystal_angstrom>  (18)
8.1428999999999991

$$$$
BACE1_verubecestat__canonical_obabel_seed2207_ex32__pose19
     RDKit          3D

 45 47  0  0  0  0  0  0  0  0999 V2000
   27.7380   15.5520   21.4300 C   0  0  0  0  0  0  0  0  0  0  0  0
   27.2400   14.2430   20.9620 N   0  0  0  0  0  0  0  0  0  0  0  0
   27.3690   13.8030   19.6250 C   0  0  0  0  0  0  0  0  0  0  0  0
   28.1290   14.6280   18.8400 N   0  0  0  0  0  0  0  0  0  0  0  0
   26.8430   12.7070   19.1730 N   0  0  0  0  0  0  0  0  0  0  0  0
   25.9570   11.8840   19.9940 C   0  0  2  0  0  0  0  0  0  0  0  0
   25.9760   10.5340   19.2720 C   0  0  0  0  0  0  0  0  0  0  0  0
   24.5320   12.4160   20.0040 C   0  0  0  0  0  0  0  0  0  0  0  0
   23.7430   12.3400   21.1510 C   0  0  0  0  0  0  0  0  0  0  0  0
   22.4500   12.8100   21.1880 C   0  0  0  0  0  0  0  0  0  0  0  0
   21.7670   12.6750   22.4040 N   0  0  0  0  0  0  0  0  0  0  0  0
   20.9590   11.6330   22.8220 C   0  0  0  0  0  0  0  0  0  0  0  0
   20.6010   10.6950   22.1230 O   0  0  0  0  0  0  0  0  0  0  0  0
   20.5490   11.6820   24.2470 C   0  0  0  0  0  0  0  0  0  0  0  0
   19.8440   12.7730   24.7250 C   0  0  0  0  0  0  0  0  0  0  0  0
   19.4880   12.7670   26.0630 C   0  0  0  0  0  0  0  0  0  0  0  0
   19.8360   11.6970   26.8630 C   0  0  0  0  0  0  0  0  0  0  0  0
   19.5210   11.6510   28.1680 F   0  0  0  0  0  0  0  0  0  0  0  0
   20.5440   10.6600   26.2960 C   0  0  0  0  0  0  0  0  0  0  0  0
   20.9080   10.6400   25.0040 N   0  0  0  0  0  0  0  0  0  0  0  0
   21.8860   13.4070   20.0670 C   0  0  0  0  0  0  0  0  0  0  0  0
   22.6530   13.4870   18.9180 C   0  0  0  0  0  0  0  0  0  0  0  0
   23.9380   12.9830   18.8870 C   0  0  0  0  0  0  0  0  0  0  0  0
   24.6590   13.0480   17.7380 F   0  0  0  0  0  0  0  0  0  0  0  0
   26.5680   11.6660   21.3600 C   0  0  0  0  0  0  0  0  0  0  0  0
   26.7220   13.2040   22.2320 S   0  0  0  0  0  0  0  0  0  0  0  0
   27.8390   13.0520   23.1460 O   0  0  0  0  0  0  0  0  0  0  0  0
   25.4450   13.7290   22.6040 O   0  0  0  0  0  0  0  0  0  0  0  0
   27.7448   15.5698   22.5298 H   0  0  0  0  0  0  0  0  0  0  0  0
   28.7595   15.7113   21.0544 H   0  0  0  0  0  0  0  0  0  0  0  0
   27.0806   16.3500   21.0544 H   0  0  0  0  0  0  0  0  0  0  0  0
   28.2770   14.4060   17.8920 H   0  0  0  0  0  0  0  0  0  0  0  0
   28.5270   15.4430   19.2230 H   0  0  0  0  0  0  0  0  0  0  0  0
   25.9874    9.7217   20.0136 H   0  0  0  0  0  0  0  0  0  0  0  0
   25.0791   10.4426   18.6418 H   0  0  0  0  0  0  0  0  0  0  0  0
   26.8752   10.4678   18.6418 H   0  0  0  0  0  0  0  0  0  0  0  0
   24.1692   11.8882   22.0589 H   0  0  0  0  0  0  0  0  0  0  0  0
   21.8770   13.4170   23.0420 H   0  0  0  0  0  0  0  0  0  0  0  0
   19.5767   13.6129   24.0669 H   0  0  0  0  0  0  0  0  0  0  0  0
   18.9287   13.6135   26.4880 H   0  0  0  0  0  0  0  0  0  0  0  0
   20.8244    9.8077   26.9324 H   0  0  0  0  0  0  0  0  0  0  0  0
   20.8605   13.8041   20.0923 H   0  0  0  0  0  0  0  0  0  0  0  0
   22.2332   13.9585   18.0172 H   0  0  0  0  0  0  0  0  0  0  0  0
   25.9255   10.9859   21.9384 H   0  0  0  0  0  0  0  0  0  0  0  0
   27.5698   11.2298   21.2334 H   0  0  0  0  0  0  0  0  0  0  0  0
  1  2  1  0
  2  3  1  0
  3  4  1  0
  3  5  2  0
  5  6  1  0
  6  7  1  6
  6  8  1  0
  8  9  2  0
  9 10  1  0
 10 11  1  0
 11 12  1  0
 12 13  2  0
 12 14  1  0
 14 15  2  0
 15 16  1  0
 16 17  2  0
 17 18  1  0
 17 19  1  0
 19 20  2  0
 10 21  2  0
 21 22  1  0
 22 23  2  0
 23 24  1  0
  6 25  1  0
 25 26  1  0
 26 27  2  0
 26 28  2  0
 26  2  1  0
 23  8  1  0
 20 14  1  0
  1 29  1  0
  1 30  1  0
  1 31  1  0
  4 32  1  0
  4 33  1  0
  7 34  1  0
  7 35  1  0
  7 36  1  0
  9 37  1  0
 11 38  1  0
 15 39  1  0
 16 40  1  0
 19 41  1  0
 21 42  1  0
 22 43  1  0
 25 44  1  0
 25 45  1  0
M  END
>  <meeko>  (19)
{"is_sidechain": false}

>  <source_group>  (19)
BACE1 canonical

>  <source_system>  (19)
BACE1_verubecestat

>  <source_run>  (19)
canonical_obabel_seed2207_ex32

>  <source_seed>  (19)
2207

>  <vina_pose_rank>  (19)
19

>  <vina_affinity_kcal_mol>  (19)
-7.1710000000000003

>  <vina_rmsd_to_crystal_angstrom>  (19)
7.4001999999999999

$$$$
BACE1_verubecestat__canonical_obabel_seed2207_ex32__pose20
     RDKit          3D

 45 47  0  0  0  0  0  0  0  0999 V2000
   29.2750   16.4940   23.8940 C   0  0  0  0  0  0  0  0  0  0  0  0
   29.3120   15.2080   23.1710 N   0  0  0  0  0  0  0  0  0  0  0  0
   30.2510   14.9220   22.1540 C   0  0  0  0  0  0  0  0  0  0  0  0
   31.2160   15.8820   22.0040 N   0  0  0  0  0  0  0  0  0  0  0  0
   30.2300   13.8420   21.4360 N   0  0  0  0  0  0  0  0  0  0  0  0
   29.1430   12.8710   21.5400 C   0  0  2  0  0  0  0  0  0  0  0  0
   29.7480   11.6100   20.9170 C   0  0  0  0  0  0  0  0  0  0  0  0
   27.9270   13.2860   20.7250 C   0  0  0  0  0  0  0  0  0  0  0  0
   26.6570   12.7990   21.0280 C   0  0  0  0  0  0  0  0  0  0  0  0
   25.5400   13.1550   20.3060 C   0  0  0  0  0  0  0  0  0  0  0  0
   24.3230   12.5960   20.7170 N   0  0  0  0  0  0  0  0  0  0  0  0
   23.5570   11.6420   20.0710 C   0  0  0  0  0  0  0  0  0  0  0  0
   23.7660   11.2160   18.9430 O   0  0  0  0  0  0  0  0  0  0  0  0
   22.4250   11.0980   20.8610 C   0  0  0  0  0  0  0  0  0  0  0  0
   21.7820    9.9450   20.4440 C   0  0  0  0  0  0  0  0  0  0  0  0
   20.7320    9.4830   21.2180 C   0  0  0  0  0  0  0  0  0  0  0  0
   20.3660   10.1680   22.3600 C   0  0  0  0  0  0  0  0  0  0  0  0
   19.3470    9.7630   23.1370 F   0  0  0  0  0  0  0  0  0  0  0  0
   21.0630   11.3090   22.6900 C   0  0  0  0  0  0  0  0  0  0  0  0
   22.0820   11.7840   21.9560 N   0  0  0  0  0  0  0  0  0  0  0  0
   25.6430   14.0460   19.2460 C   0  0  0  0  0  0  0  0  0  0  0  0
   26.8970   14.5370   18.9280 C   0  0  0  0  0  0  0  0  0  0  0  0
   28.0130   14.1460   19.6410 C   0  0  0  0  0  0  0  0  0  0  0  0
   29.2370   14.6200   19.2900 F   0  0  0  0  0  0  0  0  0  0  0  0
   28.8630   12.5580   22.9930 C   0  0  0  0  0  0  0  0  0  0  0  0
   28.2840   14.0030   23.8460 S   0  0  0  0  0  0  0  0  0  0  0  0
   28.6660   13.8430   25.2380 O   0  0  0  0  0  0  0  0  0  0  0  0
   26.9770   14.3840   23.4100 O   0  0  0  0  0  0  0  0  0  0  0  0
   29.2804   16.3056   24.9777 H   0  0  0  0  0  0  0  0  0  0  0  0
   30.1563   17.0933   23.6216 H   0  0  0  0  0  0  0  0  0  0  0  0
   28.3607   17.0416   23.6216 H   0  0  0  0  0  0  0  0  0  0  0  0
   31.9160   15.7730   21.3210 H   0  0  0  0  0  0  0  0  0  0  0  0
   31.2100   16.6810   22.5800 H   0  0  0  0  0  0  0  0  0  0  0  0
   30.0754   10.9276   21.7152 H   0  0  0  0  0  0  0  0  0  0  0  0
   28.9918   11.1097   20.2941 H   0  0  0  0  0  0  0  0  0  0  0  0
   30.6114   11.8868   20.2941 H   0  0  0  0  0  0  0  0  0  0  0  0
   26.5428   12.1055   21.8741 H   0  0  0  0  0  0  0  0  0  0  0  0
   23.9680   12.9240   21.5750 H   0  0  0  0  0  0  0  0  0  0  0  0
   22.0941    9.4159   19.5315 H   0  0  0  0  0  0  0  0  0  0  0  0
   20.1900    8.5720   20.9242 H   0  0  0  0  0  0  0  0  0  0  0  0
   20.7711   11.8572   23.5979 H   0  0  0  0  0  0  0  0  0  0  0  0
   24.7537   14.3526   18.6757 H   0  0  0  0  0  0  0  0  0  0  0  0
   27.0063   15.2483   18.0961 H   0  0  0  0  0  0  0  0  0  0  0  0
   28.0954   11.7723   23.0517 H   0  0  0  0  0  0  0  0  0  0  0  0
   29.7952   12.2172   23.4673 H   0  0  0  0  0  0  0  0  0  0  0  0
  1  2  1  0
  2  3  1  0
  3  4  1  0
  3  5  2  0
  5  6  1  0
  6  7  1  6
  6  8  1  0
  8  9  2  0
  9 10  1  0
 10 11  1  0
 11 12  1  0
 12 13  2  0
 12 14  1  0
 14 15  2  0
 15 16  1  0
 16 17  2  0
 17 18  1  0
 17 19  1  0
 19 20  2  0
 10 21  2  0
 21 22  1  0
 22 23  2  0
 23 24  1  0
  6 25  1  0
 25 26  1  0
 26 27  2  0
 26 28  2  0
 26  2  1  0
 23  8  1  0
 20 14  1  0
  1 29  1  0
  1 30  1  0
  1 31  1  0
  4 32  1  0
  4 33  1  0
  7 34  1  0
  7 35  1  0
  7 36  1  0
  9 37  1  0
 11 38  1  0
 15 39  1  0
 16 40  1  0
 19 41  1  0
 21 42  1  0
 22 43  1  0
 25 44  1  0
 25 45  1  0
M  END
>  <meeko>  (20)
{"is_sidechain": false}

>  <source_group>  (20)
BACE1 canonical

>  <source_system>  (20)
BACE1_verubecestat

>  <source_run>  (20)
canonical_obabel_seed2207_ex32

>  <source_seed>  (20)
2207

>  <vina_pose_rank>  (20)
20

>  <vina_affinity_kcal_mol>  (20)
-7.1180000000000003

>  <vina_rmsd_to_crystal_angstrom>  (20)
7.6981000000000002

$$$$
