FYN_saracatinib__vina_seed1103_ex32__pose01
     RDKit          3D

 72 77  0  0  0  0  0  0  0  0999 V2000
   -9.3830   13.7450   -0.2170 C   0  0  0  0  0  0  0  0  0  0  0  0
   -8.5250   13.9110   -1.3780 N   0  0  0  0  0  0  0  0  0  0  0  0
   -9.1900   13.4140   -2.5690 C   0  0  0  0  0  0  0  0  0  0  0  0
   -8.3390   13.6300   -3.8290 C   0  0  0  0  0  0  0  0  0  0  0  0
   -7.9780   15.0310   -4.0210 N   0  0  0  0  0  0  0  0  0  0  0  0
   -7.1170   15.1430   -5.1940 C   0  0  0  0  0  0  0  0  0  0  0  0
   -7.7890   15.6350   -6.4880 C   0  0  0  0  0  0  0  0  0  0  0  0
   -9.1560   15.9200   -6.3080 O   0  0  0  0  0  0  0  0  0  0  0  0
   -9.9520   15.7520   -7.4150 C   0  0  0  0  0  0  0  0  0  0  0  0
  -11.0260   16.5130   -7.6540 C   0  0  0  0  0  0  0  0  0  0  0  0
  -11.7930   16.3230   -8.7380 C   0  0  0  0  0  0  0  0  0  0  0  0
  -11.5370   15.3500   -9.6570 C   0  0  0  0  0  0  0  0  0  0  0  0
  -10.4520   14.5590   -9.4310 C   0  0  0  0  0  0  0  0  0  0  0  0
  -10.0890   13.5530  -10.3080 O   0  0  0  0  0  0  0  0  0  0  0  0
   -9.9830   12.2040   -9.9220 C   0  0  0  0  0  0  0  0  0  0  0  0
  -11.0170   11.7860   -8.8760 C   0  0  0  0  0  0  0  0  0  0  0  0
  -11.1010   10.2680   -8.7630 C   0  0  0  0  0  0  0  0  0  0  0  0
  -11.3920    9.6880  -10.0110 O   0  0  0  0  0  0  0  0  0  0  0  0
  -10.3330    9.8990  -10.9050 C   0  0  0  0  0  0  0  0  0  0  0  0
  -10.2020   11.3880  -11.2070 C   0  0  0  0  0  0  0  0  0  0  0  0
   -9.7060   14.7930   -8.3270 C   0  0  0  0  0  0  0  0  0  0  0  0
  -12.3950   15.2710  -10.7140 C   0  0  0  0  0  0  0  0  0  0  0  0
  -12.4780   14.5030  -11.7380 N   0  0  0  0  0  0  0  0  0  0  0  0
  -13.3720   14.1330  -12.5760 C   0  0  0  0  0  0  0  0  0  0  0  0
  -14.0990   13.0040  -12.3400 C   0  0  0  0  0  0  0  0  0  0  0  0
  -13.9000   11.9940  -10.9370 Cl  0  0  0  0  0  0  0  0  0  0  0  0
  -15.0570   12.5950  -13.1960 C   0  0  0  0  0  0  0  0  0  0  0  0
  -15.3310   13.2730  -14.3190 C   0  0  0  0  0  0  0  0  0  0  0  0
  -14.6210   14.3780  -14.5640 C   0  0  0  0  0  0  0  0  0  0  0  0
  -13.6690   14.7920  -13.7180 C   0  0  0  0  0  0  0  0  0  0  0  0
  -13.1540   15.8260  -14.1500 O   0  0  0  0  0  0  0  0  0  0  0  0
  -13.7330   16.1290  -15.4180 C   0  0  0  0  0  0  0  0  0  0  0  0
  -14.7290   15.1210  -15.5390 O   0  0  0  0  0  0  0  0  0  0  0  0
  -13.3640   16.1010  -10.7530 N   0  0  0  0  0  0  0  0  0  0  0  0
  -13.5150   16.9650   -9.8460 C   0  0  0  0  0  0  0  0  0  0  0  0
  -12.7760   17.1170   -8.8390 N   0  0  0  0  0  0  0  0  0  0  0  0
   -7.3040   15.4960   -2.8180 C   0  0  0  0  0  0  0  0  0  0  0  0
   -8.1770   15.3080   -1.5620 C   0  0  0  0  0  0  0  0  0  0  0  0
   -8.7860   13.8605    0.6996 H   0  0  0  0  0  0  0  0  0  0  0  0
  -10.1769   14.5062   -0.2359 H   0  0  0  0  0  0  0  0  0  0  0  0
   -9.8356   12.7426   -0.2359 H   0  0  0  0  0  0  0  0  0  0  0  0
   -9.3799   12.3373   -2.4478 H   0  0  0  0  0  0  0  0  0  0  0  0
  -10.1312   13.9698   -2.6924 H   0  0  0  0  0  0  0  0  0  0  0  0
   -7.4172   13.0365   -3.7392 H   0  0  0  0  0  0  0  0  0  0  0  0
   -8.9372   13.3150   -4.6967 H   0  0  0  0  0  0  0  0  0  0  0  0
   -6.3066   15.8454   -4.9492 H   0  0  0  0  0  0  0  0  0  0  0  0
   -6.7800   14.1183   -5.4096 H   0  0  0  0  0  0  0  0  0  0  0  0
   -7.2789   16.5494   -6.8253 H   0  0  0  0  0  0  0  0  0  0  0  0
   -7.7095   14.8305   -7.2340 H   0  0  0  0  0  0  0  0  0  0  0  0
  -11.2861   17.3130   -6.9453 H   0  0  0  0  0  0  0  0  0  0  0  0
   -9.0018   12.0342   -9.4547 H   0  0  0  0  0  0  0  0  0  0  0  0
  -10.7294   12.2035   -7.8998 H   0  0  0  0  0  0  0  0  0  0  0  0
  -12.0010   12.1682   -9.1854 H   0  0  0  0  0  0  0  0  0  0  0  0
  -10.1375    9.8798   -8.4011 H   0  0  0  0  0  0  0  0  0  0  0  0
  -11.9067   10.0116   -8.0594 H   0  0  0  0  0  0  0  0  0  0  0  0
   -9.3976    9.5336  -10.4561 H   0  0  0  0  0  0  0  0  0  0  0  0
  -10.5324    9.3546  -11.8398 H   0  0  0  0  0  0  0  0  0  0  0  0
   -9.3454   11.5428  -11.8796 H   0  0  0  0  0  0  0  0  0  0  0  0
  -11.1353   11.7290  -11.6788 H   0  0  0  0  0  0  0  0  0  0  0  0
   -8.8296   14.1491   -8.1616 H   0  0  0  0  0  0  0  0  0  0  0  0
  -11.7565   15.9619  -11.2840 H   0  0  0  0  0  0  0  0  0  0  0  0
  -11.5570   14.0420  -11.9630 H   0  0  0  0  0  0  0  0  0  0  0  0
  -15.6275   11.6828  -12.9671 H   0  0  0  0  0  0  0  0  0  0  0  0
  -16.1124   12.9320  -15.0141 H   0  0  0  0  0  0  0  0  0  0  0  0
  -14.1796   17.1343  -15.4231 H   0  0  0  0  0  0  0  0  0  0  0  0
  -13.0080   16.1365  -16.2453 H   0  0  0  0  0  0  0  0  0  0  0  0
  -14.3714   17.6482   -9.9447 H   0  0  0  0  0  0  0  0  0  0  0  0
  -12.9510   17.8140   -8.1660 H   0  0  0  0  0  0  0  0  0  0  0  0
   -6.3707   14.9278   -2.6909 H   0  0  0  0  0  0  0  0  0  0  0  0
   -7.1007   16.5708   -2.9345 H   0  0  0  0  0  0  0  0  0  0  0  0
   -7.6207   15.6597   -0.6807 H   0  0  0  0  0  0  0  0  0  0  0  0
   -9.1035   15.8875   -1.6877 H   0  0  0  0  0  0  0  0  0  0  0  0
  1  2  1  0
  2  3  1  0
  3  4  1  0
  4  5  1  0
  5  6  1  0
  6  7  1  0
  7  8  1  0
  8  9  1  0
  9 10  2  0
 10 11  1  0
 11 12  2  0
 12 13  1  0
 13 14  1  0
 14 15  1  0
 15 16  1  0
 16 17  1  0
 17 18  1  0
 18 19  1  0
 19 20  1  0
 13 21  2  0
 12 22  1  0
 22 23  1  0
 23 24  1  0
 24 25  2  0
 25 26  1  0
 25 27  1  0
 27 28  2  0
 28 29  1  0
 29 30  2  0
 30 31  1  0
 31 32  1  0
 32 33  1  0
 22 34  1  0
 34 35  2  0
 35 36  1  0
  5 37  1  0
 37 38  1  0
 38  2  1  0
 21  9  1  0
 30 24  1  0
 36 11  1  0
 20 15  1  0
 33 29  1  0
  1 39  1  0
  1 40  1  0
  1 41  1  0
  3 42  1  0
  3 43  1  0
  4 44  1  0
  4 45  1  0
  6 46  1  0
  6 47  1  0
  7 48  1  0
  7 49  1  0
 10 50  1  0
 15 51  1  0
 16 52  1  0
 16 53  1  0
 17 54  1  0
 17 55  1  0
 19 56  1  0
 19 57  1  0
 20 58  1  0
 20 59  1  0
 21 60  1  0
 22 61  1  0
 23 62  1  0
 27 63  1  0
 28 64  1  0
 32 65  1  0
 32 66  1  0
 35 67  1  0
 36 68  1  0
 37 69  1  0
 37 70  1  0
 38 71  1  0
 38 72  1  0
M  END
>  <meeko>  (1)
{"is_sidechain": false}

>  <source_group>  (1)
FYN canonical

>  <source_system>  (1)
FYN_saracatinib

>  <source_run>  (1)
vina_seed1103_ex32

>  <source_seed>  (1)
1103

>  <vina_pose_rank>  (1)
1

>  <vina_affinity_kcal_mol>  (1)
-9.1500000000000004

>  <vina_rmsd_to_crystal_angstrom>  (1)
1.919

$$$$
FYN_saracatinib__vina_seed1103_ex32__pose02
     RDKit          3D

 72 77  0  0  0  0  0  0  0  0999 V2000
   -9.2250   13.7110   -0.2970 C   0  0  0  0  0  0  0  0  0  0  0  0
   -8.4320   14.0200   -1.4740 N   0  0  0  0  0  0  0  0  0  0  0  0
   -9.0710   13.4870   -2.6640 C   0  0  0  0  0  0  0  0  0  0  0  0
   -8.2950   13.8480   -3.9390 C   0  0  0  0  0  0  0  0  0  0  0  0
   -8.1110   15.2890   -4.0880 N   0  0  0  0  0  0  0  0  0  0  0  0
   -7.3100   15.5440   -5.2800 C   0  0  0  0  0  0  0  0  0  0  0  0
   -8.0040   16.3190   -6.4140 C   0  0  0  0  0  0  0  0  0  0  0  0
   -9.4010   16.3680   -6.2550 O   0  0  0  0  0  0  0  0  0  0  0  0
  -10.1410   16.0960   -7.3800 C   0  0  0  0  0  0  0  0  0  0  0  0
  -11.2600   16.7630   -7.6870 C   0  0  0  0  0  0  0  0  0  0  0  0
  -11.9690   16.4740   -8.7870 C   0  0  0  0  0  0  0  0  0  0  0  0
  -11.6080   15.4880   -9.6550 C   0  0  0  0  0  0  0  0  0  0  0  0
  -10.4760   14.7900   -9.3600 C   0  0  0  0  0  0  0  0  0  0  0  0
  -10.0070   13.7820  -10.1810 O   0  0  0  0  0  0  0  0  0  0  0  0
   -9.8970   12.4430   -9.7610 C   0  0  0  0  0  0  0  0  0  0  0  0
  -11.0240   12.0030   -8.8260 C   0  0  0  0  0  0  0  0  0  0  0  0
  -11.0680   10.4840   -8.6940 C   0  0  0  0  0  0  0  0  0  0  0  0
  -11.1990    9.8750   -9.9560 O   0  0  0  0  0  0  0  0  0  0  0  0
  -10.0560   10.1120  -10.7320 C   0  0  0  0  0  0  0  0  0  0  0  0
   -9.9440   11.6000  -11.0460 C   0  0  0  0  0  0  0  0  0  0  0  0
   -9.7910   15.1240   -8.2420 C   0  0  0  0  0  0  0  0  0  0  0  0
  -12.4180   15.3020  -10.7370 C   0  0  0  0  0  0  0  0  0  0  0  0
  -12.4050   14.4910  -11.7300 N   0  0  0  0  0  0  0  0  0  0  0  0
  -13.2500   13.8080  -12.4070 C   0  0  0  0  0  0  0  0  0  0  0  0
  -13.6610   14.2530  -13.6290 C   0  0  0  0  0  0  0  0  0  0  0  0
  -13.1040   15.7290  -14.3640 Cl  0  0  0  0  0  0  0  0  0  0  0  0
  -14.5380   13.5490  -14.3720 C   0  0  0  0  0  0  0  0  0  0  0  0
  -15.0520   12.3890  -13.9420 C   0  0  0  0  0  0  0  0  0  0  0  0
  -14.6610   11.9450  -12.7440 C   0  0  0  0  0  0  0  0  0  0  0  0
  -13.7890   12.6360  -12.0000 C   0  0  0  0  0  0  0  0  0  0  0  0
  -13.5800   12.0360  -10.9430 O   0  0  0  0  0  0  0  0  0  0  0  0
  -14.4090   10.8760  -10.9060 C   0  0  0  0  0  0  0  0  0  0  0  0
  -15.0270   10.9110  -12.1880 O   0  0  0  0  0  0  0  0  0  0  0  0
  -13.4440   16.0550  -10.8440 N   0  0  0  0  0  0  0  0  0  0  0  0
  -13.6920   16.9400   -9.9790 C   0  0  0  0  0  0  0  0  0  0  0  0
  -13.0040   17.1860   -8.9550 N   0  0  0  0  0  0  0  0  0  0  0  0
   -7.4590   15.7900   -2.8880 C   0  0  0  0  0  0  0  0  0  0  0  0
   -8.2610   15.4550   -1.6160 C   0  0  0  0  0  0  0  0  0  0  0  0
   -8.6421   13.9381    0.6078 H   0  0  0  0  0  0  0  0  0  0  0  0
  -10.1428   14.3173   -0.3037 H   0  0  0  0  0  0  0  0  0  0  0  0
   -9.4906   12.6436   -0.3037 H   0  0  0  0  0  0  0  0  0  0  0  0
   -9.1254   12.3917   -2.5785 H   0  0  0  0  0  0  0  0  0  0  0  0
  -10.0758   13.9284   -2.7391 H   0  0  0  0  0  0  0  0  0  0  0  0
   -7.3062   13.3676   -3.8990 H   0  0  0  0  0  0  0  0  0  0  0  0
   -8.8802   13.4932   -4.8002 H   0  0  0  0  0  0  0  0  0  0  0  0
   -6.4252   16.1207   -4.9724 H   0  0  0  0  0  0  0  0  0  0  0  0
   -7.0824   14.5525   -5.6985 H   0  0  0  0  0  0  0  0  0  0  0  0
   -7.6141   17.3475   -6.4288 H   0  0  0  0  0  0  0  0  0  0  0  0
   -7.7926   15.7935   -7.3569 H   0  0  0  0  0  0  0  0  0  0  0  0
  -11.6059   17.5672   -7.0209 H   0  0  0  0  0  0  0  0  0  0  0  0
   -8.9675   12.3164   -9.1866 H   0  0  0  0  0  0  0  0  0  0  0  0
  -10.8594   12.4451   -7.8323 H   0  0  0  0  0  0  0  0  0  0  0  0
  -11.9807   12.3444   -9.2480 H   0  0  0  0  0  0  0  0  0  0  0  0
  -10.1378   10.1363   -8.2209 H   0  0  0  0  0  0  0  0  0  0  0  0
  -11.9373   10.2092   -8.0786 H   0  0  0  0  0  0  0  0  0  0  0  0
   -9.1637    9.7879  -10.1763 H   0  0  0  0  0  0  0  0  0  0  0  0
  -10.1323    9.5471  -11.6728 H   0  0  0  0  0  0  0  0  0  0  0  0
   -9.0241   11.7757  -11.6230 H   0  0  0  0  0  0  0  0  0  0  0  0
  -10.8308   11.8994  -11.6240 H   0  0  0  0  0  0  0  0  0  0  0  0
   -8.8755   14.5559   -8.0203 H   0  0  0  0  0  0  0  0  0  0  0  0
  -11.8126   16.0172  -11.3132 H   0  0  0  0  0  0  0  0  0  0  0  0
  -11.4320   14.3340  -12.1010 H   0  0  0  0  0  0  0  0  0  0  0  0
  -14.8393   13.9368  -15.3563 H   0  0  0  0  0  0  0  0  0  0  0  0
  -15.7700   11.8225  -14.5532 H   0  0  0  0  0  0  0  0  0  0  0  0
  -13.8112    9.9619  -10.7756 H   0  0  0  0  0  0  0  0  0  0  0  0
  -15.1237   10.8689  -10.0699 H   0  0  0  0  0  0  0  0  0  0  0  0
  -14.5924   17.5524  -10.1348 H   0  0  0  0  0  0  0  0  0  0  0  0
  -13.2550   17.8940   -8.3190 H   0  0  0  0  0  0  0  0  0  0  0  0
   -6.4607   15.3347   -2.8092 H   0  0  0  0  0  0  0  0  0  0  0  0
   -7.3902   16.8848   -2.9692 H   0  0  0  0  0  0  0  0  0  0  0  0
   -7.7225   15.8421   -0.7384 H   0  0  0  0  0  0  0  0  0  0  0  0
   -9.2543   15.9212   -1.6939 H   0  0  0  0  0  0  0  0  0  0  0  0
  1  2  1  0
  2  3  1  0
  3  4  1  0
  4  5  1  0
  5  6  1  0
  6  7  1  0
  7  8  1  0
  8  9  1  0
  9 10  2  0
 10 11  1  0
 11 12  2  0
 12 13  1  0
 13 14  1  0
 14 15  1  0
 15 16  1  0
 16 17  1  0
 17 18  1  0
 18 19  1  0
 19 20  1  0
 13 21  2  0
 12 22  1  0
 22 23  1  0
 23 24  1  0
 24 25  2  0
 25 26  1  0
 25 27  1  0
 27 28  2  0
 28 29  1  0
 29 30  2  0
 30 31  1  0
 31 32  1  0
 32 33  1  0
 22 34  1  0
 34 35  2  0
 35 36  1  0
  5 37  1  0
 37 38  1  0
 38  2  1  0
 21  9  1  0
 30 24  1  0
 36 11  1  0
 20 15  1  0
 33 29  1  0
  1 39  1  0
  1 40  1  0
  1 41  1  0
  3 42  1  0
  3 43  1  0
  4 44  1  0
  4 45  1  0
  6 46  1  0
  6 47  1  0
  7 48  1  0
  7 49  1  0
 10 50  1  0
 15 51  1  0
 16 52  1  0
 16 53  1  0
 17 54  1  0
 17 55  1  0
 19 56  1  0
 19 57  1  0
 20 58  1  0
 20 59  1  0
 21 60  1  0
 22 61  1  0
 23 62  1  0
 27 63  1  0
 28 64  1  0
 32 65  1  0
 32 66  1  0
 35 67  1  0
 36 68  1  0
 37 69  1  0
 37 70  1  0
 38 71  1  0
 38 72  1  0
M  END
>  <meeko>  (2)
{"is_sidechain": false}

>  <source_group>  (2)
FYN canonical

>  <source_system>  (2)
FYN_saracatinib

>  <source_run>  (2)
vina_seed1103_ex32

>  <source_seed>  (2)
1103

>  <vina_pose_rank>  (2)
2

>  <vina_affinity_kcal_mol>  (2)
-9.1120000000000001

>  <vina_rmsd_to_crystal_angstrom>  (2)
2.6654

$$$$
FYN_saracatinib__vina_seed1103_ex32__pose03
     RDKit          3D

 72 77  0  0  0  0  0  0  0  0999 V2000
   -7.4120    9.3940   -7.8080 C   0  0  0  0  0  0  0  0  0  0  0  0
   -7.6110   10.8010   -7.5060 N   0  0  0  0  0  0  0  0  0  0  0  0
   -8.8410   10.9830   -6.7550 C   0  0  0  0  0  0  0  0  0  0  0  0
   -9.0550   12.4510   -6.3600 C   0  0  0  0  0  0  0  0  0  0  0  0
   -7.9340   12.9920   -5.5980 N   0  0  0  0  0  0  0  0  0  0  0  0
   -8.1830   14.4030   -5.3220 C   0  0  0  0  0  0  0  0  0  0  0  0
   -8.3470   15.3180   -6.5470 C   0  0  0  0  0  0  0  0  0  0  0  0
   -9.5900   15.9780   -6.5610 O   0  0  0  0  0  0  0  0  0  0  0  0
  -10.3530   15.7930   -7.6870 C   0  0  0  0  0  0  0  0  0  0  0  0
  -11.4360   16.5320   -7.9560 C   0  0  0  0  0  0  0  0  0  0  0  0
  -12.1690   16.3250   -9.0590 C   0  0  0  0  0  0  0  0  0  0  0  0
  -11.8700   15.3570   -9.9700 C   0  0  0  0  0  0  0  0  0  0  0  0
  -10.7760   14.5880   -9.7140 C   0  0  0  0  0  0  0  0  0  0  0  0
  -10.3700   13.5890  -10.5790 O   0  0  0  0  0  0  0  0  0  0  0  0
  -10.3070   12.2330  -10.2060 C   0  0  0  0  0  0  0  0  0  0  0  0
  -11.4480   11.8010   -9.2840 C   0  0  0  0  0  0  0  0  0  0  0  0
  -11.5450   10.2810   -9.2050 C   0  0  0  0  0  0  0  0  0  0  0  0
  -11.7000    9.7220  -10.4860 O   0  0  0  0  0  0  0  0  0  0  0  0
  -10.5510    9.9440  -11.2580 C   0  0  0  0  0  0  0  0  0  0  0  0
  -10.3870   11.4380  -11.5190 C   0  0  0  0  0  0  0  0  0  0  0  0
  -10.0640   14.8380   -8.5910 C   0  0  0  0  0  0  0  0  0  0  0  0
  -12.6990   15.2600  -11.0490 C   0  0  0  0  0  0  0  0  0  0  0  0
  -12.7390   14.4890  -12.0730 N   0  0  0  0  0  0  0  0  0  0  0  0
  -13.5940   14.1260  -12.9540 C   0  0  0  0  0  0  0  0  0  0  0  0
  -14.3460   13.0070  -12.7520 C   0  0  0  0  0  0  0  0  0  0  0  0
  -14.2310   12.0010  -11.3360 Cl  0  0  0  0  0  0  0  0  0  0  0  0
  -15.2640   12.6070  -13.6530 C   0  0  0  0  0  0  0  0  0  0  0  0
  -15.4720   13.2830  -14.7920 C   0  0  0  0  0  0  0  0  0  0  0  0
  -14.7380   14.3780  -15.0040 C   0  0  0  0  0  0  0  0  0  0  0  0
  -13.8250   14.7850  -14.1130 C   0  0  0  0  0  0  0  0  0  0  0  0
  -13.2750   15.8100  -14.5210 O   0  0  0  0  0  0  0  0  0  0  0  0
  -13.7850   16.1140  -15.8190 C   0  0  0  0  0  0  0  0  0  0  0  0
  -14.7860   15.1180  -15.9860 O   0  0  0  0  0  0  0  0  0  0  0  0
  -13.6820   16.0700  -11.1150 N   0  0  0  0  0  0  0  0  0  0  0  0
  -13.8740   16.9320  -10.2140 C   0  0  0  0  0  0  0  0  0  0  0  0
  -13.1650   17.0990   -9.1880 N   0  0  0  0  0  0  0  0  0  0  0  0
   -6.7210   12.8050   -6.3800 C   0  0  0  0  0  0  0  0  0  0  0  0
   -6.4930   11.3250   -6.7420 C   0  0  0  0  0  0  0  0  0  0  0  0
   -7.3316    8.8254   -6.8698 H   0  0  0  0  0  0  0  0  0  0  0  0
   -8.2662    9.0198   -8.3914 H   0  0  0  0  0  0  0  0  0  0  0  0
   -6.4876    9.2714   -8.3914 H   0  0  0  0  0  0  0  0  0  0  0  0
   -9.6884   10.6536   -7.3741 H   0  0  0  0  0  0  0  0  0  0  0  0
   -8.7704   10.3873   -5.8330 H   0  0  0  0  0  0  0  0  0  0  0  0
   -9.1808   13.0482   -7.2752 H   0  0  0  0  0  0  0  0  0  0  0  0
   -9.9489   12.4991   -5.7208 H   0  0  0  0  0  0  0  0  0  0  0  0
   -9.1059   14.4704   -4.7273 H   0  0  0  0  0  0  0  0  0  0  0  0
   -7.2820   14.7642   -4.8045 H   0  0  0  0  0  0  0  0  0  0  0  0
   -7.5466   16.0724   -6.5341 H   0  0  0  0  0  0  0  0  0  0  0  0
   -8.2920   14.6873   -7.4465 H   0  0  0  0  0  0  0  0  0  0  0  0
  -11.7313   17.3274   -7.2559 H   0  0  0  0  0  0  0  0  0  0  0  0
   -9.3815   12.0535   -9.6391 H   0  0  0  0  0  0  0  0  0  0  0  0
  -11.2668   12.2022   -8.2760 H   0  0  0  0  0  0  0  0  0  0  0  0
  -12.3927   12.1905   -9.6913 H   0  0  0  0  0  0  0  0  0  0  0  0
  -10.6265    9.8846   -8.7475 H   0  0  0  0  0  0  0  0  0  0  0  0
  -12.4221   10.0154   -8.5966 H   0  0  0  0  0  0  0  0  0  0  0  0
   -9.6695    9.5684  -10.7178 H   0  0  0  0  0  0  0  0  0  0  0  0
  -10.6495    9.4154  -12.2177 H   0  0  0  0  0  0  0  0  0  0  0  0
   -9.4629   11.6014  -12.0928 H   0  0  0  0  0  0  0  0  0  0  0  0
  -11.2644   11.7886  -12.0822 H   0  0  0  0  0  0  0  0  0  0  0  0
   -9.1796   14.2119   -8.4017 H   0  0  0  0  0  0  0  0  0  0  0  0
  -12.0598   15.9630  -11.6033 H   0  0  0  0  0  0  0  0  0  0  0  0
  -11.8140   14.0160  -12.2500 H   0  0  0  0  0  0  0  0  0  0  0  0
  -15.8576   11.7036  -13.4493 H   0  0  0  0  0  0  0  0  0  0  0  0
  -16.2202   12.9477  -15.5253 H   0  0  0  0  0  0  0  0  0  0  0  0
  -14.2180   17.1247  -15.8513 H   0  0  0  0  0  0  0  0  0  0  0  0
  -13.0188   16.1084  -16.6083 H   0  0  0  0  0  0  0  0  0  0  0  0
  -14.7404   17.5985  -10.3366 H   0  0  0  0  0  0  0  0  0  0  0  0
  -13.3720   17.7940   -8.5210 H   0  0  0  0  0  0  0  0  0  0  0  0
   -6.8027   13.3896   -7.3082 H   0  0  0  0  0  0  0  0  0  0  0  0
   -5.8684   13.1425   -5.7724 H   0  0  0  0  0  0  0  0  0  0  0  0
   -5.5748   11.2380   -7.3414 H   0  0  0  0  0  0  0  0  0  0  0  0
   -6.4004   10.7455   -5.8116 H   0  0  0  0  0  0  0  0  0  0  0  0
  1  2  1  0
  2  3  1  0
  3  4  1  0
  4  5  1  0
  5  6  1  0
  6  7  1  0
  7  8  1  0
  8  9  1  0
  9 10  2  0
 10 11  1  0
 11 12  2  0
 12 13  1  0
 13 14  1  0
 14 15  1  0
 15 16  1  0
 16 17  1  0
 17 18  1  0
 18 19  1  0
 19 20  1  0
 13 21  2  0
 12 22  1  0
 22 23  1  0
 23 24  1  0
 24 25  2  0
 25 26  1  0
 25 27  1  0
 27 28  2  0
 28 29  1  0
 29 30  2  0
 30 31  1  0
 31 32  1  0
 32 33  1  0
 22 34  1  0
 34 35  2  0
 35 36  1  0
  5 37  1  0
 37 38  1  0
 38  2  1  0
 21  9  1  0
 30 24  1  0
 36 11  1  0
 20 15  1  0
 33 29  1  0
  1 39  1  0
  1 40  1  0
  1 41  1  0
  3 42  1  0
  3 43  1  0
  4 44  1  0
  4 45  1  0
  6 46  1  0
  6 47  1  0
  7 48  1  0
  7 49  1  0
 10 50  1  0
 15 51  1  0
 16 52  1  0
 16 53  1  0
 17 54  1  0
 17 55  1  0
 19 56  1  0
 19 57  1  0
 20 58  1  0
 20 59  1  0
 21 60  1  0
 22 61  1  0
 23 62  1  0
 27 63  1  0
 28 64  1  0
 32 65  1  0
 32 66  1  0
 35 67  1  0
 36 68  1  0
 37 69  1  0
 37 70  1  0
 38 71  1  0
 38 72  1  0
M  END
>  <meeko>  (3)
{"is_sidechain": false}

>  <source_group>  (3)
FYN canonical

>  <source_system>  (3)
FYN_saracatinib

>  <source_run>  (3)
vina_seed1103_ex32

>  <source_seed>  (3)
1103

>  <vina_pose_rank>  (3)
3

>  <vina_affinity_kcal_mol>  (3)
-8.9779999999999998

>  <vina_rmsd_to_crystal_angstrom>  (3)
3.2244999999999999

$$$$
FYN_saracatinib__vina_seed1103_ex32__pose04
     RDKit          3D

 72 77  0  0  0  0  0  0  0  0999 V2000
   -8.4040   18.7150   -4.5700 C   0  0  0  0  0  0  0  0  0  0  0  0
   -7.9230   17.3690   -4.8320 N   0  0  0  0  0  0  0  0  0  0  0  0
   -8.5180   16.4330   -3.8950 C   0  0  0  0  0  0  0  0  0  0  0  0
   -8.0820   14.9880   -4.1800 C   0  0  0  0  0  0  0  0  0  0  0  0
   -8.3900   14.5740   -5.5450 N   0  0  0  0  0  0  0  0  0  0  0  0
   -7.8860   13.2210   -5.7560 C   0  0  0  0  0  0  0  0  0  0  0  0
   -8.8120   12.2610   -6.5230 C   0  0  0  0  0  0  0  0  0  0  0  0
  -10.1630   12.6510   -6.4590 O   0  0  0  0  0  0  0  0  0  0  0  0
  -10.7190   13.0770   -7.6400 C   0  0  0  0  0  0  0  0  0  0  0  0
  -11.1990   14.3150   -7.8070 C   0  0  0  0  0  0  0  0  0  0  0  0
  -11.7450   14.7040   -8.9680 C   0  0  0  0  0  0  0  0  0  0  0  0
  -11.8530   13.8750  -10.0430 C   0  0  0  0  0  0  0  0  0  0  0  0
  -11.3770   12.6070   -9.8940 C   0  0  0  0  0  0  0  0  0  0  0  0
  -11.4180   11.6880  -10.9270 O   0  0  0  0  0  0  0  0  0  0  0  0
  -10.8490   10.4050  -10.8300 C   0  0  0  0  0  0  0  0  0  0  0  0
  -11.8820    9.2920  -10.6470 C   0  0  0  0  0  0  0  0  0  0  0  0
  -11.2670    7.9220  -10.9110 C   0  0  0  0  0  0  0  0  0  0  0  0
  -10.6980    7.8680  -12.1970 O   0  0  0  0  0  0  0  0  0  0  0  0
   -9.6090    8.7470  -12.2850 C   0  0  0  0  0  0  0  0  0  0  0  0
  -10.0960   10.1860  -12.1530 C   0  0  0  0  0  0  0  0  0  0  0  0
  -10.8290   12.2640   -8.7070 C   0  0  0  0  0  0  0  0  0  0  0  0
  -12.4260   14.4020  -11.1640 C   0  0  0  0  0  0  0  0  0  0  0  0
  -12.6970   13.9370  -12.3270 N   0  0  0  0  0  0  0  0  0  0  0  0
  -13.7060   13.8770  -13.1130 C   0  0  0  0  0  0  0  0  0  0  0  0
  -14.6720   12.9370  -12.9100 C   0  0  0  0  0  0  0  0  0  0  0  0
  -14.6390   11.7720  -11.6170 Cl  0  0  0  0  0  0  0  0  0  0  0  0
  -15.7530   12.8580  -13.7110 C   0  0  0  0  0  0  0  0  0  0  0  0
  -15.9220   13.6900  -14.7480 C   0  0  0  0  0  0  0  0  0  0  0  0
  -14.9790   14.6130  -14.9600 C   0  0  0  0  0  0  0  0  0  0  0  0
  -13.9030   14.7000  -14.1680 C   0  0  0  0  0  0  0  0  0  0  0  0
  -13.1780   15.6190  -14.5550 O   0  0  0  0  0  0  0  0  0  0  0  0
  -13.7430   16.1770  -15.7410 C   0  0  0  0  0  0  0  0  0  0  0  0
  -14.9620   15.4540  -15.8580 O   0  0  0  0  0  0  0  0  0  0  0  0
  -12.8190   15.6160  -11.1120 N   0  0  0  0  0  0  0  0  0  0  0  0
  -12.6750   16.3000  -10.0610 C   0  0  0  0  0  0  0  0  0  0  0  0
  -12.1570   15.9030   -8.9860 N   0  0  0  0  0  0  0  0  0  0  0  0
   -7.7720   15.5230   -6.4580 C   0  0  0  0  0  0  0  0  0  0  0  0
   -8.2400   16.9660   -6.1900 C   0  0  0  0  0  0  0  0  0  0  0  0
   -8.4624   18.8785   -3.4838 H   0  0  0  0  0  0  0  0  0  0  0  0
   -7.7111   19.4449   -5.0139 H   0  0  0  0  0  0  0  0  0  0  0  0
   -9.4026   18.8404   -5.0139 H   0  0  0  0  0  0  0  0  0  0  0  0
   -8.2079   16.7042   -2.8750 H   0  0  0  0  0  0  0  0  0  0  0  0
   -9.6113   16.4885   -4.0030 H   0  0  0  0  0  0  0  0  0  0  0  0
   -6.9961   14.9090   -4.0232 H   0  0  0  0  0  0  0  0  0  0  0  0
   -8.6365   14.3288   -3.4959 H   0  0  0  0  0  0  0  0  0  0  0  0
   -6.9435   13.2982   -6.3180 H   0  0  0  0  0  0  0  0  0  0  0  0
   -7.7809   12.7869   -4.7508 H   0  0  0  0  0  0  0  0  0  0  0  0
   -8.5009   12.2379   -7.5778 H   0  0  0  0  0  0  0  0  0  0  0  0
   -8.7274   11.2690   -6.0552 H   0  0  0  0  0  0  0  0  0  0  0  0
  -11.1443   15.0297   -6.9726 H   0  0  0  0  0  0  0  0  0  0  0  0
  -10.2015   10.3591   -9.9419 H   0  0  0  0  0  0  0  0  0  0  0  0
  -12.2630    9.3218   -9.6155 H   0  0  0  0  0  0  0  0  0  0  0  0
  -12.6987    9.4523  -11.3662 H   0  0  0  0  0  0  0  0  0  0  0  0
  -10.4849    7.7277  -10.1623 H   0  0  0  0  0  0  0  0  0  0  0  0
  -12.0591    7.1616  -10.8442 H   0  0  0  0  0  0  0  0  0  0  0  0
   -8.8958    8.5271  -11.4770 H   0  0  0  0  0  0  0  0  0  0  0  0
   -9.1155    8.6181  -13.2596 H   0  0  0  0  0  0  0  0  0  0  0  0
   -9.2287   10.8618  -12.1872 H   0  0  0  0  0  0  0  0  0  0  0  0
  -10.7869   10.3949  -12.9830 H   0  0  0  0  0  0  0  0  0  0  0  0
  -10.4423   11.2393   -8.6049 H   0  0  0  0  0  0  0  0  0  0  0  0
  -11.4351   14.7188  -11.5215 H   0  0  0  0  0  0  0  0  0  0  0  0
  -11.8630   13.4710  -12.7720 H   0  0  0  0  0  0  0  0  0  0  0  0
  -16.5156   12.0915  -13.5086 H   0  0  0  0  0  0  0  0  0  0  0  0
  -16.8044   13.6159  -15.4006 H   0  0  0  0  0  0  0  0  0  0  0  0
  -13.9276   17.2553  -15.6264 H   0  0  0  0  0  0  0  0  0  0  0  0
  -13.0919   16.0932  -16.6236 H   0  0  0  0  0  0  0  0  0  0  0  0
  -13.0357   17.3388  -10.0878 H   0  0  0  0  0  0  0  0  0  0  0  0
  -12.0750   16.4910   -8.2000 H   0  0  0  0  0  0  0  0  0  0  0  0
   -6.6799   15.4748   -6.3355 H   0  0  0  0  0  0  0  0  0  0  0  0
   -8.0684   15.2531   -7.4824 H   0  0  0  0  0  0  0  0  0  0  0  0
   -7.7363   17.6447   -6.8941 H   0  0  0  0  0  0  0  0  0  0  0  0
   -9.3307   17.0128   -6.3252 H   0  0  0  0  0  0  0  0  0  0  0  0
  1  2  1  0
  2  3  1  0
  3  4  1  0
  4  5  1  0
  5  6  1  0
  6  7  1  0
  7  8  1  0
  8  9  1  0
  9 10  2  0
 10 11  1  0
 11 12  2  0
 12 13  1  0
 13 14  1  0
 14 15  1  0
 15 16  1  0
 16 17  1  0
 17 18  1  0
 18 19  1  0
 19 20  1  0
 13 21  2  0
 12 22  1  0
 22 23  1  0
 23 24  1  0
 24 25  2  0
 25 26  1  0
 25 27  1  0
 27 28  2  0
 28 29  1  0
 29 30  2  0
 30 31  1  0
 31 32  1  0
 32 33  1  0
 22 34  1  0
 34 35  2  0
 35 36  1  0
  5 37  1  0
 37 38  1  0
 38  2  1  0
 21  9  1  0
 30 24  1  0
 36 11  1  0
 20 15  1  0
 33 29  1  0
  1 39  1  0
  1 40  1  0
  1 41  1  0
  3 42  1  0
  3 43  1  0
  4 44  1  0
  4 45  1  0
  6 46  1  0
  6 47  1  0
  7 48  1  0
  7 49  1  0
 10 50  1  0
 15 51  1  0
 16 52  1  0
 16 53  1  0
 17 54  1  0
 17 55  1  0
 19 56  1  0
 19 57  1  0
 20 58  1  0
 20 59  1  0
 21 60  1  0
 22 61  1  0
 23 62  1  0
 27 63  1  0
 28 64  1  0
 32 65  1  0
 32 66  1  0
 35 67  1  0
 36 68  1  0
 37 69  1  0
 37 70  1  0
 38 71  1  0
 38 72  1  0
M  END
>  <meeko>  (4)
{"is_sidechain": false}

>  <source_group>  (4)
FYN canonical

>  <source_system>  (4)
FYN_saracatinib

>  <source_run>  (4)
vina_seed1103_ex32

>  <source_seed>  (4)
1103

>  <vina_pose_rank>  (4)
4

>  <vina_affinity_kcal_mol>  (4)
-8.9459999999999997

>  <vina_rmsd_to_crystal_angstrom>  (4)
2.7911000000000001

$$$$
FYN_saracatinib__vina_seed1103_ex32__pose05
     RDKit          3D

 72 77  0  0  0  0  0  0  0  0999 V2000
   -6.7150    9.7190   -7.8950 C   0  0  0  0  0  0  0  0  0  0  0  0
   -7.2150   11.0230   -7.4960 N   0  0  0  0  0  0  0  0  0  0  0  0
   -8.4500   10.8790   -6.7450 C   0  0  0  0  0  0  0  0  0  0  0  0
   -8.9760   12.2340   -6.2500 C   0  0  0  0  0  0  0  0  0  0  0  0
   -7.9950   12.9500   -5.4410 N   0  0  0  0  0  0  0  0  0  0  0  0
   -8.5430   14.2500   -5.0690 C   0  0  0  0  0  0  0  0  0  0  0  0
   -8.3370   15.3910   -6.0790 C   0  0  0  0  0  0  0  0  0  0  0  0
   -9.4880   16.1880   -6.2310 O   0  0  0  0  0  0  0  0  0  0  0  0
  -10.2160   15.9760   -7.3760 C   0  0  0  0  0  0  0  0  0  0  0  0
  -11.3240   16.6670   -7.6660 C   0  0  0  0  0  0  0  0  0  0  0  0
  -12.0220   16.4350   -8.7870 C   0  0  0  0  0  0  0  0  0  0  0  0
  -11.6580   15.4870   -9.6960 C   0  0  0  0  0  0  0  0  0  0  0  0
  -10.5360   14.7670   -9.4190 C   0  0  0  0  0  0  0  0  0  0  0  0
  -10.0650   13.7930  -10.2800 O   0  0  0  0  0  0  0  0  0  0  0  0
   -9.9640   12.4370   -9.9190 C   0  0  0  0  0  0  0  0  0  0  0  0
  -11.1550   11.9330   -9.1030 C   0  0  0  0  0  0  0  0  0  0  0  0
  -11.1800   10.4090   -9.0510 C   0  0  0  0  0  0  0  0  0  0  0  0
  -11.1960    9.8630  -10.3470 O   0  0  0  0  0  0  0  0  0  0  0  0
   -9.9980   10.1560  -11.0150 C   0  0  0  0  0  0  0  0  0  0  0  0
   -9.8900   11.6600  -11.2440 C   0  0  0  0  0  0  0  0  0  0  0  0
   -9.8620   15.0420   -8.2790 C   0  0  0  0  0  0  0  0  0  0  0  0
  -12.4560   15.3600  -10.7950 C   0  0  0  0  0  0  0  0  0  0  0  0
  -12.4370   14.5960  -11.8240 N   0  0  0  0  0  0  0  0  0  0  0  0
  -13.2680   13.8950  -12.5000 C   0  0  0  0  0  0  0  0  0  0  0  0
  -13.6700   14.3180  -13.7330 C   0  0  0  0  0  0  0  0  0  0  0  0
  -13.1170   15.7880  -14.4850 Cl  0  0  0  0  0  0  0  0  0  0  0  0
  -14.5330   13.5960  -14.4750 C   0  0  0  0  0  0  0  0  0  0  0  0
  -15.0420   12.4380  -14.0330 C   0  0  0  0  0  0  0  0  0  0  0  0
  -14.6600   12.0160  -12.8240 C   0  0  0  0  0  0  0  0  0  0  0  0
  -13.8020   12.7250  -12.0810 C   0  0  0  0  0  0  0  0  0  0  0  0
  -13.5990   12.1430  -11.0130 O   0  0  0  0  0  0  0  0  0  0  0  0
  -14.4190   10.9760  -10.9680 C   0  0  0  0  0  0  0  0  0  0  0  0
  -15.0230   10.9860  -12.2570 O   0  0  0  0  0  0  0  0  0  0  0  0
  -13.4740   16.1250  -10.8790 N   0  0  0  0  0  0  0  0  0  0  0  0
  -13.7250   16.9720   -9.9770 C   0  0  0  0  0  0  0  0  0  0  0  0
  -13.0480   17.1640   -8.9340 N   0  0  0  0  0  0  0  0  0  0  0  0
   -6.7760   13.0880   -6.2240 C   0  0  0  0  0  0  0  0  0  0  0  0
   -6.2330   11.7230   -6.6880 C   0  0  0  0  0  0  0  0  0  0  0  0
   -6.4868    9.1238   -6.9985 H   0  0  0  0  0  0  0  0  0  0  0  0
   -7.4784    9.2013   -8.4943 H   0  0  0  0  0  0  0  0  0  0  0  0
   -5.8012    9.8444   -8.4943 H   0  0  0  0  0  0  0  0  0  0  0  0
   -9.2094   10.4172   -7.3931 H   0  0  0  0  0  0  0  0  0  0  0  0
   -8.2453   10.2494   -5.8665 H   0  0  0  0  0  0  0  0  0  0  0  0
   -9.2338   12.8528   -7.1222 H   0  0  0  0  0  0  0  0  0  0  0  0
   -9.8555   12.0416   -5.6180 H   0  0  0  0  0  0  0  0  0  0  0  0
   -9.6257   14.1267   -4.9190 H   0  0  0  0  0  0  0  0  0  0  0  0
   -7.9910   14.5536   -4.1673 H   0  0  0  0  0  0  0  0  0  0  0  0
   -7.5105   16.0272   -5.7295 H   0  0  0  0  0  0  0  0  0  0  0  0
   -8.1117   14.9377   -7.0556 H   0  0  0  0  0  0  0  0  0  0  0  0
  -11.6706   17.4437   -6.9685 H   0  0  0  0  0  0  0  0  0  0  0  0
   -9.0823   12.2953   -9.2767 H   0  0  0  0  0  0  0  0  0  0  0  0
  -11.0805   12.3262   -8.0784 H   0  0  0  0  0  0  0  0  0  0  0  0
  -12.0806   12.2812   -9.5846 H   0  0  0  0  0  0  0  0  0  0  0  0
  -10.2848   10.0520   -8.5208 H   0  0  0  0  0  0  0  0  0  0  0  0
  -12.0913   10.0901   -8.5239 H   0  0  0  0  0  0  0  0  0  0  0  0
   -9.1474    9.8172  -10.4053 H   0  0  0  0  0  0  0  0  0  0  0  0
   -9.9869    9.6386  -11.9857 H   0  0  0  0  0  0  0  0  0  0  0  0
   -8.9299   11.8792  -11.7341 H   0  0  0  0  0  0  0  0  0  0  0  0
  -10.7328   11.9748  -11.8770 H   0  0  0  0  0  0  0  0  0  0  0  0
   -8.9535   14.4568   -8.0735 H   0  0  0  0  0  0  0  0  0  0  0  0
  -11.8368   16.0954  -11.3296 H   0  0  0  0  0  0  0  0  0  0  0  0
  -11.4720   14.5130  -12.2390 H   0  0  0  0  0  0  0  0  0  0  0  0
  -14.8268   13.9666  -15.4681 H   0  0  0  0  0  0  0  0  0  0  0  0
  -15.7485   11.8560  -14.6431 H   0  0  0  0  0  0  0  0  0  0  0  0
  -13.8149   10.0692  -10.8171 H   0  0  0  0  0  0  0  0  0  0  0  0
  -15.1431   10.9756  -10.1399 H   0  0  0  0  0  0  0  0  0  0  0  0
  -14.6176   17.5998  -10.1157 H   0  0  0  0  0  0  0  0  0  0  0  0
  -13.3020   17.8440   -8.2680 H   0  0  0  0  0  0  0  0  0  0  0  0
   -6.9900   13.7050   -7.1092 H   0  0  0  0  0  0  0  0  0  0  0  0
   -6.0133   13.5593   -5.5867 H   0  0  0  0  0  0  0  0  0  0  0  0
   -5.3225   11.8814   -7.2846 H   0  0  0  0  0  0  0  0  0  0  0  0
   -6.0091   11.1134   -5.8002 H   0  0  0  0  0  0  0  0  0  0  0  0
  1  2  1  0
  2  3  1  0
  3  4  1  0
  4  5  1  0
  5  6  1  0
  6  7  1  0
  7  8  1  0
  8  9  1  0
  9 10  2  0
 10 11  1  0
 11 12  2  0
 12 13  1  0
 13 14  1  0
 14 15  1  0
 15 16  1  0
 16 17  1  0
 17 18  1  0
 18 19  1  0
 19 20  1  0
 13 21  2  0
 12 22  1  0
 22 23  1  0
 23 24  1  0
 24 25  2  0
 25 26  1  0
 25 27  1  0
 27 28  2  0
 28 29  1  0
 29 30  2  0
 30 31  1  0
 31 32  1  0
 32 33  1  0
 22 34  1  0
 34 35  2  0
 35 36  1  0
  5 37  1  0
 37 38  1  0
 38  2  1  0
 21  9  1  0
 30 24  1  0
 36 11  1  0
 20 15  1  0
 33 29  1  0
  1 39  1  0
  1 40  1  0
  1 41  1  0
  3 42  1  0
  3 43  1  0
  4 44  1  0
  4 45  1  0
  6 46  1  0
  6 47  1  0
  7 48  1  0
  7 49  1  0
 10 50  1  0
 15 51  1  0
 16 52  1  0
 16 53  1  0
 17 54  1  0
 17 55  1  0
 19 56  1  0
 19 57  1  0
 20 58  1  0
 20 59  1  0
 21 60  1  0
 22 61  1  0
 23 62  1  0
 27 63  1  0
 28 64  1  0
 32 65  1  0
 32 66  1  0
 35 67  1  0
 36 68  1  0
 37 69  1  0
 37 70  1  0
 38 71  1  0
 38 72  1  0
M  END
>  <meeko>  (5)
{"is_sidechain": false}

>  <source_group>  (5)
FYN canonical

>  <source_system>  (5)
FYN_saracatinib

>  <source_run>  (5)
vina_seed1103_ex32

>  <source_seed>  (5)
1103

>  <vina_pose_rank>  (5)
5

>  <vina_affinity_kcal_mol>  (5)
-8.8279999999999994

>  <vina_rmsd_to_crystal_angstrom>  (5)
3.7351999999999999

$$$$
FYN_saracatinib__vina_seed1103_ex32__pose06
     RDKit          3D

 72 77  0  0  0  0  0  0  0  0999 V2000
   -8.8970    8.5210   -7.4220 C   0  0  0  0  0  0  0  0  0  0  0  0
   -8.9750    9.9360   -7.1050 N   0  0  0  0  0  0  0  0  0  0  0  0
   -7.6680   10.5540   -7.2400 C   0  0  0  0  0  0  0  0  0  0  0  0
   -7.7220   12.0660   -6.9750 C   0  0  0  0  0  0  0  0  0  0  0  0
   -8.6760   12.7490   -7.8440 N   0  0  0  0  0  0  0  0  0  0  0  0
   -8.7180   14.1620   -7.4850 C   0  0  0  0  0  0  0  0  0  0  0  0
  -10.1120   14.7590   -7.2280 C   0  0  0  0  0  0  0  0  0  0  0  0
  -10.3760   15.8770   -8.0420 O   0  0  0  0  0  0  0  0  0  0  0  0
  -11.3050   15.6890   -9.0350 C   0  0  0  0  0  0  0  0  0  0  0  0
  -12.3460   16.5090   -9.2160 C   0  0  0  0  0  0  0  0  0  0  0  0
  -13.2440   16.2980  -10.1890 C   0  0  0  0  0  0  0  0  0  0  0  0
  -13.1630   15.2440  -11.0480 C   0  0  0  0  0  0  0  0  0  0  0  0
  -12.1150   14.3910  -10.8790 C   0  0  0  0  0  0  0  0  0  0  0  0
  -11.9250   13.2990  -11.7050 O   0  0  0  0  0  0  0  0  0  0  0  0
  -11.9650   11.9720  -11.2380 C   0  0  0  0  0  0  0  0  0  0  0  0
  -13.3700   11.5020  -10.8560 C   0  0  0  0  0  0  0  0  0  0  0  0
  -13.4220    9.9850  -10.7100 C   0  0  0  0  0  0  0  0  0  0  0  0
  -12.9890    9.3540  -11.8910 O   0  0  0  0  0  0  0  0  0  0  0  0
  -11.6320    9.6220  -12.1180 C   0  0  0  0  0  0  0  0  0  0  0  0
  -11.4400   11.1090  -12.3980 C   0  0  0  0  0  0  0  0  0  0  0  0
  -11.2310   14.6490   -9.8870 C   0  0  0  0  0  0  0  0  0  0  0  0
  -14.1420   15.1520  -11.9940 C   0  0  0  0  0  0  0  0  0  0  0  0
  -14.3940   14.3190  -12.9350 N   0  0  0  0  0  0  0  0  0  0  0  0
  -14.7590   14.3560  -14.1620 C   0  0  0  0  0  0  0  0  0  0  0  0
  -13.9960   15.0160  -15.0790 C   0  0  0  0  0  0  0  0  0  0  0  0
  -12.5100   15.8380  -14.6970 Cl  0  0  0  0  0  0  0  0  0  0  0  0
  -14.3460   15.0610  -16.3790 C   0  0  0  0  0  0  0  0  0  0  0  0
  -15.4610   14.4690  -16.8280 C   0  0  0  0  0  0  0  0  0  0  0  0
  -16.2210   13.8240  -15.9380 C   0  0  0  0  0  0  0  0  0  0  0  0
  -15.8800   13.7720  -14.6440 C   0  0  0  0  0  0  0  0  0  0  0  0
  -16.7250   13.1280  -14.0190 O   0  0  0  0  0  0  0  0  0  0  0  0
  -17.7690   12.7540  -14.9170 C   0  0  0  0  0  0  0  0  0  0  0  0
  -17.2740   13.2300  -16.1630 O   0  0  0  0  0  0  0  0  0  0  0  0
  -15.0510   16.0490  -11.9930 N   0  0  0  0  0  0  0  0  0  0  0  0
  -15.0360   16.9870  -11.1490 C   0  0  0  0  0  0  0  0  0  0  0  0
  -14.1760   17.1550  -10.2460 N   0  0  0  0  0  0  0  0  0  0  0  0
   -9.9760   12.1150   -7.6770 C   0  0  0  0  0  0  0  0  0  0  0  0
   -9.9220   10.6060   -7.9790 C   0  0  0  0  0  0  0  0  0  0  0  0
   -8.8648    7.9377   -6.4900 H   0  0  0  0  0  0  0  0  0  0  0  0
   -9.7803    8.2273   -8.0081 H   0  0  0  0  0  0  0  0  0  0  0  0
   -7.9868    8.3262   -8.0081 H   0  0  0  0  0  0  0  0  0  0  0  0
   -6.9788   10.0905   -6.5188 H   0  0  0  0  0  0  0  0  0  0  0  0
   -7.3219   10.4000   -8.2727 H   0  0  0  0  0  0  0  0  0  0  0  0
   -8.0167   12.2310   -5.9281 H   0  0  0  0  0  0  0  0  0  0  0  0
   -6.7238   12.4790   -7.1823 H   0  0  0  0  0  0  0  0  0  0  0  0
   -8.1234   14.2928   -6.5689 H   0  0  0  0  0  0  0  0  0  0  0  0
   -8.3262   14.6989   -8.3615 H   0  0  0  0  0  0  0  0  0  0  0  0
  -10.8694   13.9876   -7.4310 H   0  0  0  0  0  0  0  0  0  0  0  0
  -10.1461   15.0918   -6.1801 H   0  0  0  0  0  0  0  0  0  0  0  0
  -12.4683   17.3767   -8.5511 H   0  0  0  0  0  0  0  0  0  0  0  0
  -11.3633   11.8901  -10.3208 H   0  0  0  0  0  0  0  0  0  0  0  0
  -13.6558   11.9647   -9.8999 H   0  0  0  0  0  0  0  0  0  0  0  0
  -14.0664   11.7998  -11.6537 H   0  0  0  0  0  0  0  0  0  0  0  0
  -12.7698    9.6802   -9.8783 H   0  0  0  0  0  0  0  0  0  0  0  0
  -14.4616    9.6854  -10.5110 H   0  0  0  0  0  0  0  0  0  0  0  0
  -11.0500    9.3396  -11.2283 H   0  0  0  0  0  0  0  0  0  0  0  0
  -11.2868    9.0410  -12.9859 H   0  0  0  0  0  0  0  0  0  0  0  0
  -10.3678   11.3112  -12.5375 H   0  0  0  0  0  0  0  0  0  0  0  0
  -12.0074   11.3662  -13.3046 H   0  0  0  0  0  0  0  0  0  0  0  0
  -10.3861   13.9548   -9.7675 H   0  0  0  0  0  0  0  0  0  0  0  0
  -13.5293   15.7484  -12.6860 H   0  0  0  0  0  0  0  0  0  0  0  0
  -14.2700   13.3200  -12.6240 H   0  0  0  0  0  0  0  0  0  0  0  0
  -13.7002   15.5973  -17.0899 H   0  0  0  0  0  0  0  0  0  0  0  0
  -15.7407   14.5124  -17.8910 H   0  0  0  0  0  0  0  0  0  0  0  0
  -17.9099   11.6632  -14.9336 H   0  0  0  0  0  0  0  0  0  0  0  0
  -18.7537   13.1628  -14.6463 H   0  0  0  0  0  0  0  0  0  0  0  0
  -15.8492   17.7254  -11.2081 H   0  0  0  0  0  0  0  0  0  0  0  0
  -14.2250   17.9120   -9.6180 H   0  0  0  0  0  0  0  0  0  0  0  0
  -10.3108   12.2582   -6.6390 H   0  0  0  0  0  0  0  0  0  0  0  0
  -10.6757   12.5799   -8.3871 H   0  0  0  0  0  0  0  0  0  0  0  0
  -10.9214   10.1723   -7.8270 H   0  0  0  0  0  0  0  0  0  0  0  0
   -9.5974   10.4675   -9.0209 H   0  0  0  0  0  0  0  0  0  0  0  0
  1  2  1  0
  2  3  1  0
  3  4  1  0
  4  5  1  0
  5  6  1  0
  6  7  1  0
  7  8  1  0
  8  9  1  0
  9 10  2  0
 10 11  1  0
 11 12  2  0
 12 13  1  0
 13 14  1  0
 14 15  1  0
 15 16  1  0
 16 17  1  0
 17 18  1  0
 18 19  1  0
 19 20  1  0
 13 21  2  0
 12 22  1  0
 22 23  1  0
 23 24  1  0
 24 25  2  0
 25 26  1  0
 25 27  1  0
 27 28  2  0
 28 29  1  0
 29 30  2  0
 30 31  1  0
 31 32  1  0
 32 33  1  0
 22 34  1  0
 34 35  2  0
 35 36  1  0
  5 37  1  0
 37 38  1  0
 38  2  1  0
 21  9  1  0
 30 24  1  0
 36 11  1  0
 20 15  1  0
 33 29  1  0
  1 39  1  0
  1 40  1  0
  1 41  1  0
  3 42  1  0
  3 43  1  0
  4 44  1  0
  4 45  1  0
  6 46  1  0
  6 47  1  0
  7 48  1  0
  7 49  1  0
 10 50  1  0
 15 51  1  0
 16 52  1  0
 16 53  1  0
 17 54  1  0
 17 55  1  0
 19 56  1  0
 19 57  1  0
 20 58  1  0
 20 59  1  0
 21 60  1  0
 22 61  1  0
 23 62  1  0
 27 63  1  0
 28 64  1  0
 32 65  1  0
 32 66  1  0
 35 67  1  0
 36 68  1  0
 37 69  1  0
 37 70  1  0
 38 71  1  0
 38 72  1  0
M  END
>  <meeko>  (6)
{"is_sidechain": false}

>  <source_group>  (6)
FYN canonical

>  <source_system>  (6)
FYN_saracatinib

>  <source_run>  (6)
vina_seed1103_ex32

>  <source_seed>  (6)
1103

>  <vina_pose_rank>  (6)
6

>  <vina_affinity_kcal_mol>  (6)
-8.8040000000000003

>  <vina_rmsd_to_crystal_angstrom>  (6)
4.2343000000000002

$$$$
FYN_saracatinib__vina_seed1103_ex32__pose07
     RDKit          3D

 72 77  0  0  0  0  0  0  0  0999 V2000
   -6.9920   22.6540   -4.1420 C   0  0  0  0  0  0  0  0  0  0  0  0
   -7.4140   21.3230   -4.5420 N   0  0  0  0  0  0  0  0  0  0  0  0
   -6.3400   20.6460   -5.2460 C   0  0  0  0  0  0  0  0  0  0  0  0
   -6.7260   19.2110   -5.6300 C   0  0  0  0  0  0  0  0  0  0  0  0
   -7.1280   18.4150   -4.4740 N   0  0  0  0  0  0  0  0  0  0  0  0
   -7.5430   17.0920   -4.9280 C   0  0  0  0  0  0  0  0  0  0  0  0
   -8.4440   17.0510   -6.1750 C   0  0  0  0  0  0  0  0  0  0  0  0
   -9.2340   15.8870   -6.2290 O   0  0  0  0  0  0  0  0  0  0  0  0
   -9.9940   15.7330   -7.3620 C   0  0  0  0  0  0  0  0  0  0  0  0
  -11.0790   16.4750   -7.6110 C   0  0  0  0  0  0  0  0  0  0  0  0
  -11.8090   16.2990   -8.7210 C   0  0  0  0  0  0  0  0  0  0  0  0
  -11.5050   15.3590   -9.6590 C   0  0  0  0  0  0  0  0  0  0  0  0
  -10.4080   14.5870   -9.4240 C   0  0  0  0  0  0  0  0  0  0  0  0
   -9.9960   13.6160  -10.3180 O   0  0  0  0  0  0  0  0  0  0  0  0
   -9.8630   12.2600   -9.9660 C   0  0  0  0  0  0  0  0  0  0  0  0
  -10.8750   11.8000   -8.9160 C   0  0  0  0  0  0  0  0  0  0  0  0
  -10.9330   10.2780   -8.8370 C   0  0  0  0  0  0  0  0  0  0  0  0
  -11.2320    9.7230  -10.0950 O   0  0  0  0  0  0  0  0  0  0  0  0
  -10.1890    9.9720  -10.9980 C   0  0  0  0  0  0  0  0  0  0  0  0
  -10.0860   11.4700  -11.2660 C   0  0  0  0  0  0  0  0  0  0  0  0
   -9.6990   14.8070   -8.2930 C   0  0  0  0  0  0  0  0  0  0  0  0
  -12.3310   15.2900  -10.7430 C   0  0  0  0  0  0  0  0  0  0  0  0
  -12.3660   14.5510  -11.7890 N   0  0  0  0  0  0  0  0  0  0  0  0
  -13.2290   13.8570  -12.4320 C   0  0  0  0  0  0  0  0  0  0  0  0
  -13.6700   14.2790  -13.6510 C   0  0  0  0  0  0  0  0  0  0  0  0
  -13.1290   15.7390  -14.4290 Cl  0  0  0  0  0  0  0  0  0  0  0  0
  -14.5670   13.5640  -14.3580 C   0  0  0  0  0  0  0  0  0  0  0  0
  -15.0720   12.4130  -13.8920 C   0  0  0  0  0  0  0  0  0  0  0  0
  -14.6520   11.9920  -12.6960 C   0  0  0  0  0  0  0  0  0  0  0  0
  -13.7590   12.6950  -11.9880 C   0  0  0  0  0  0  0  0  0  0  0  0
  -13.5240   12.1140  -10.9260 O   0  0  0  0  0  0  0  0  0  0  0  0
  -14.3550   10.9570  -10.8450 C   0  0  0  0  0  0  0  0  0  0  0  0
  -15.0050   10.9690  -12.1110 O   0  0  0  0  0  0  0  0  0  0  0  0
  -13.3170   16.0990  -10.7870 N   0  0  0  0  0  0  0  0  0  0  0  0
  -13.5140   16.9330   -9.8600 C   0  0  0  0  0  0  0  0  0  0  0  0
  -12.8080   17.0720   -8.8290 N   0  0  0  0  0  0  0  0  0  0  0  0
   -8.2120   19.1130   -3.7970 C   0  0  0  0  0  0  0  0  0  0  0  0
   -7.8050   20.5400   -3.3840 C   0  0  0  0  0  0  0  0  0  0  0  0
   -6.9718   22.7177   -3.0440 H   0  0  0  0  0  0  0  0  0  0  0  0
   -5.9862   22.8547   -4.5395 H   0  0  0  0  0  0  0  0  0  0  0  0
   -7.6985   23.3976   -4.5395 H   0  0  0  0  0  0  0  0  0  0  0  0
   -6.1043   21.2084   -6.1615 H   0  0  0  0  0  0  0  0  0  0  0  0
   -5.4688   20.5981   -4.5761 H   0  0  0  0  0  0  0  0  0  0  0  0
   -7.5640   19.2489   -6.3416 H   0  0  0  0  0  0  0  0  0  0  0  0
   -5.8409   18.7331   -6.0751 H   0  0  0  0  0  0  0  0  0  0  0  0
   -6.6342   16.5141   -5.1519 H   0  0  0  0  0  0  0  0  0  0  0  0
   -8.1535   16.6796   -4.1112 H   0  0  0  0  0  0  0  0  0  0  0  0
   -9.1079   17.9280   -6.1600 H   0  0  0  0  0  0  0  0  0  0  0  0
   -7.7912   17.0543   -7.0603 H   0  0  0  0  0  0  0  0  0  0  0  0
  -11.3789   17.2476   -6.8877 H   0  0  0  0  0  0  0  0  0  0  0  0
   -8.8725   12.0963   -9.5165 H   0  0  0  0  0  0  0  0  0  0  0  0
  -10.5805   12.1995   -7.9343 H   0  0  0  0  0  0  0  0  0  0  0  0
  -11.8694   12.1725   -9.2033 H   0  0  0  0  0  0  0  0  0  0  0  0
   -9.9585    9.8972   -8.4973 H   0  0  0  0  0  0  0  0  0  0  0  0
  -11.7243    9.9918   -8.1285 H   0  0  0  0  0  0  0  0  0  0  0  0
   -9.2418    9.6112  -10.5707 H   0  0  0  0  0  0  0  0  0  0  0  0
  -10.3926    9.4466  -11.9427 H   0  0  0  0  0  0  0  0  0  0  0  0
   -9.2412   11.6544  -11.9459 H   0  0  0  0  0  0  0  0  0  0  0  0
  -11.0314   11.8062  -11.7168 H   0  0  0  0  0  0  0  0  0  0  0  0
   -8.8118   14.1799   -8.1208 H   0  0  0  0  0  0  0  0  0  0  0  0
  -11.6938   16.0121  -11.2745 H   0  0  0  0  0  0  0  0  0  0  0  0
  -11.4260   14.4890  -12.2630 H   0  0  0  0  0  0  0  0  0  0  0  0
  -14.8928   13.9338  -15.3414 H   0  0  0  0  0  0  0  0  0  0  0  0
  -15.8059   11.8359  -14.4737 H   0  0  0  0  0  0  0  0  0  0  0  0
  -13.7564   10.0438  -10.7119 H   0  0  0  0  0  0  0  0  0  0  0  0
  -15.0482   10.9683   -9.9909 H   0  0  0  0  0  0  0  0  0  0  0  0
  -14.3831   17.5992   -9.9638 H   0  0  0  0  0  0  0  0  0  0  0  0
  -13.0190   17.7460   -8.1420 H   0  0  0  0  0  0  0  0  0  0  0  0
   -9.0760   19.1716   -4.4753 H   0  0  0  0  0  0  0  0  0  0  0  0
   -8.4623   18.5518   -2.8847 H   0  0  0  0  0  0  0  0  0  0  0  0
   -8.6576   21.0289   -2.8899 H   0  0  0  0  0  0  0  0  0  0  0  0
   -6.9479   20.4761   -2.6974 H   0  0  0  0  0  0  0  0  0  0  0  0
  1  2  1  0
  2  3  1  0
  3  4  1  0
  4  5  1  0
  5  6  1  0
  6  7  1  0
  7  8  1  0
  8  9  1  0
  9 10  2  0
 10 11  1  0
 11 12  2  0
 12 13  1  0
 13 14  1  0
 14 15  1  0
 15 16  1  0
 16 17  1  0
 17 18  1  0
 18 19  1  0
 19 20  1  0
 13 21  2  0
 12 22  1  0
 22 23  1  0
 23 24  1  0
 24 25  2  0
 25 26  1  0
 25 27  1  0
 27 28  2  0
 28 29  1  0
 29 30  2  0
 30 31  1  0
 31 32  1  0
 32 33  1  0
 22 34  1  0
 34 35  2  0
 35 36  1  0
  5 37  1  0
 37 38  1  0
 38  2  1  0
 21  9  1  0
 30 24  1  0
 36 11  1  0
 20 15  1  0
 33 29  1  0
  1 39  1  0
  1 40  1  0
  1 41  1  0
  3 42  1  0
  3 43  1  0
  4 44  1  0
  4 45  1  0
  6 46  1  0
  6 47  1  0
  7 48  1  0
  7 49  1  0
 10 50  1  0
 15 51  1  0
 16 52  1  0
 16 53  1  0
 17 54  1  0
 17 55  1  0
 19 56  1  0
 19 57  1  0
 20 58  1  0
 20 59  1  0
 21 60  1  0
 22 61  1  0
 23 62  1  0
 27 63  1  0
 28 64  1  0
 32 65  1  0
 32 66  1  0
 35 67  1  0
 36 68  1  0
 37 69  1  0
 37 70  1  0
 38 71  1  0
 38 72  1  0
M  END
>  <meeko>  (7)
{"is_sidechain": false}

>  <source_group>  (7)
FYN canonical

>  <source_system>  (7)
FYN_saracatinib

>  <source_run>  (7)
vina_seed1103_ex32

>  <source_seed>  (7)
1103

>  <vina_pose_rank>  (7)
7

>  <vina_affinity_kcal_mol>  (7)
-8.7370000000000001

>  <vina_rmsd_to_crystal_angstrom>  (7)
2.968

$$$$
FYN_saracatinib__vina_seed1103_ex32__pose08
     RDKit          3D

 72 77  0  0  0  0  0  0  0  0999 V2000
   -6.1240   22.2750   -4.8900 C   0  0  0  0  0  0  0  0  0  0  0  0
   -7.0220   21.1330   -4.9080 N   0  0  0  0  0  0  0  0  0  0  0  0
   -6.4130   20.0260   -5.6220 C   0  0  0  0  0  0  0  0  0  0  0  0
   -7.3070   18.7770   -5.6070 C   0  0  0  0  0  0  0  0  0  0  0  0
   -7.6490   18.3550   -4.2520 N   0  0  0  0  0  0  0  0  0  0  0  0
   -8.5510   17.2100   -4.3250 C   0  0  0  0  0  0  0  0  0  0  0  0
   -9.4330   17.1170   -5.5810 C   0  0  0  0  0  0  0  0  0  0  0  0
   -9.2660   15.8980   -6.2650 O   0  0  0  0  0  0  0  0  0  0  0  0
  -10.0430   15.7300   -7.3850 C   0  0  0  0  0  0  0  0  0  0  0  0
  -11.0960   16.5090   -7.6580 C   0  0  0  0  0  0  0  0  0  0  0  0
  -11.8430   16.3190   -8.7550 C   0  0  0  0  0  0  0  0  0  0  0  0
  -11.5900   15.3270   -9.6530 C   0  0  0  0  0  0  0  0  0  0  0  0
  -10.5270   14.5160   -9.3930 C   0  0  0  0  0  0  0  0  0  0  0  0
  -10.1680   13.4900  -10.2470 O   0  0  0  0  0  0  0  0  0  0  0  0
   -9.7940   12.2120   -9.7910 C   0  0  0  0  0  0  0  0  0  0  0  0
  -10.9450   11.4300   -9.1570 C   0  0  0  0  0  0  0  0  0  0  0  0
  -10.5930    9.9530   -9.0160 C   0  0  0  0  0  0  0  0  0  0  0  0
  -10.2410    9.4000  -10.2610 O   0  0  0  0  0  0  0  0  0  0  0  0
   -9.0570    9.9820  -10.7350 C   0  0  0  0  0  0  0  0  0  0  0  0
   -9.2930   11.4590  -11.0350 C   0  0  0  0  0  0  0  0  0  0  0  0
   -9.7990   14.7520   -8.2780 C   0  0  0  0  0  0  0  0  0  0  0  0
  -12.4280   15.2490  -10.7270 C   0  0  0  0  0  0  0  0  0  0  0  0
  -12.5060   14.4680  -11.7400 N   0  0  0  0  0  0  0  0  0  0  0  0
  -13.3900   14.1060  -12.5930 C   0  0  0  0  0  0  0  0  0  0  0  0
  -14.1330   12.9850  -12.3690 C   0  0  0  0  0  0  0  0  0  0  0  0
  -13.9680   11.9740  -10.9610 Cl  0  0  0  0  0  0  0  0  0  0  0  0
  -15.0800   12.5860  -13.2400 C   0  0  0  0  0  0  0  0  0  0  0  0
  -15.3280   13.2650  -14.3690 C   0  0  0  0  0  0  0  0  0  0  0  0
  -14.6030   14.3620  -14.6020 C   0  0  0  0  0  0  0  0  0  0  0  0
  -13.6610   14.7670  -13.7410 C   0  0  0  0  0  0  0  0  0  0  0  0
  -13.1270   15.7950  -14.1640 O   0  0  0  0  0  0  0  0  0  0  0  0
  -13.6810   16.1030  -15.4430 C   0  0  0  0  0  0  0  0  0  0  0  0
  -14.6860   15.1050  -15.5790 O   0  0  0  0  0  0  0  0  0  0  0  0
  -13.3780   16.0990  -10.7980 N   0  0  0  0  0  0  0  0  0  0  0  0
  -13.5280   16.9800   -9.9080 C   0  0  0  0  0  0  0  0  0  0  0  0
  -12.8070   17.1320   -8.8880 N   0  0  0  0  0  0  0  0  0  0  0  0
   -8.2670   19.4810   -3.5680 C   0  0  0  0  0  0  0  0  0  0  0  0
   -7.3500   20.7190   -3.5560 C   0  0  0  0  0  0  0  0  0  0  0  0
   -5.9053   22.5531   -3.8484 H   0  0  0  0  0  0  0  0  0  0  0  0
   -5.1874   22.0131   -5.4040 H   0  0  0  0  0  0  0  0  0  0  0  0
   -6.5994   23.1234   -5.4040 H   0  0  0  0  0  0  0  0  0  0  0  0
   -6.2399   20.3275   -6.6656 H   0  0  0  0  0  0  0  0  0  0  0  0
   -5.4665   19.7751   -5.1209 H   0  0  0  0  0  0  0  0  0  0  0  0
   -8.2356   19.0004   -6.1526 H   0  0  0  0  0  0  0  0  0  0  0  0
   -6.7478   17.9579   -6.0828 H   0  0  0  0  0  0  0  0  0  0  0  0
   -7.9388   16.2974   -4.2770 H   0  0  0  0  0  0  0  0  0  0  0  0
   -9.2496   17.3327   -3.4843 H   0  0  0  0  0  0  0  0  0  0  0  0
  -10.4869   17.2119   -5.2804 H   0  0  0  0  0  0  0  0  0  0  0  0
   -9.1335   17.9274   -6.2619 H   0  0  0  0  0  0  0  0  0  0  0  0
  -11.3548   17.3242   -6.9664 H   0  0  0  0  0  0  0  0  0  0  0  0
   -9.0337   12.3141   -9.0027 H   0  0  0  0  0  0  0  0  0  0  0  0
  -11.1560   11.8458   -8.1607 H   0  0  0  0  0  0  0  0  0  0  0  0
  -11.8276   11.5183   -9.8076 H   0  0  0  0  0  0  0  0  0  0  0  0
   -9.7450    9.8494   -8.3231 H   0  0  0  0  0  0  0  0  0  0  0  0
  -11.4725    9.4173   -8.6294 H   0  0  0  0  0  0  0  0  0  0  0  0
   -8.2711    9.8852   -9.9715 H   0  0  0  0  0  0  0  0  0  0  0  0
   -8.7430    9.4693  -11.6562 H   0  0  0  0  0  0  0  0  0  0  0  0
   -8.3481   11.9113  -11.3706 H   0  0  0  0  0  0  0  0  0  0  0  0
  -10.0620   11.5343  -11.8179 H   0  0  0  0  0  0  0  0  0  0  0  0
   -8.9396   14.0930   -8.0853 H   0  0  0  0  0  0  0  0  0  0  0  0
  -11.7638   15.9179  -11.2939 H   0  0  0  0  0  0  0  0  0  0  0  0
  -11.5930   13.9810  -11.9360 H   0  0  0  0  0  0  0  0  0  0  0  0
  -15.6643   11.6805  -13.0194 H   0  0  0  0  0  0  0  0  0  0  0  0
  -16.1003   12.9308  -15.0774 H   0  0  0  0  0  0  0  0  0  0  0  0
  -14.1164   17.1130  -15.4571 H   0  0  0  0  0  0  0  0  0  0  0  0
  -12.9422   16.1019  -16.2579 H   0  0  0  0  0  0  0  0  0  0  0  0
  -14.3667   17.6803  -10.0352 H   0  0  0  0  0  0  0  0  0  0  0  0
  -12.9810   17.8430   -8.2300 H   0  0  0  0  0  0  0  0  0  0  0  0
   -9.2050   19.7381   -4.0819 H   0  0  0  0  0  0  0  0  0  0  0  0
   -8.4546   19.1854   -2.5252 H   0  0  0  0  0  0  0  0  0  0  0  0
   -7.8649   21.5438   -3.0416 H   0  0  0  0  0  0  0  0  0  0  0  0
   -6.4182   20.4614   -3.0312 H   0  0  0  0  0  0  0  0  0  0  0  0
  1  2  1  0
  2  3  1  0
  3  4  1  0
  4  5  1  0
  5  6  1  0
  6  7  1  0
  7  8  1  0
  8  9  1  0
  9 10  2  0
 10 11  1  0
 11 12  2  0
 12 13  1  0
 13 14  1  0
 14 15  1  0
 15 16  1  0
 16 17  1  0
 17 18  1  0
 18 19  1  0
 19 20  1  0
 13 21  2  0
 12 22  1  0
 22 23  1  0
 23 24  1  0
 24 25  2  0
 25 26  1  0
 25 27  1  0
 27 28  2  0
 28 29  1  0
 29 30  2  0
 30 31  1  0
 31 32  1  0
 32 33  1  0
 22 34  1  0
 34 35  2  0
 35 36  1  0
  5 37  1  0
 37 38  1  0
 38  2  1  0
 21  9  1  0
 30 24  1  0
 36 11  1  0
 20 15  1  0
 33 29  1  0
  1 39  1  0
  1 40  1  0
  1 41  1  0
  3 42  1  0
  3 43  1  0
  4 44  1  0
  4 45  1  0
  6 46  1  0
  6 47  1  0
  7 48  1  0
  7 49  1  0
 10 50  1  0
 15 51  1  0
 16 52  1  0
 16 53  1  0
 17 54  1  0
 17 55  1  0
 19 56  1  0
 19 57  1  0
 20 58  1  0
 20 59  1  0
 21 60  1  0
 22 61  1  0
 23 62  1  0
 27 63  1  0
 28 64  1  0
 32 65  1  0
 32 66  1  0
 35 67  1  0
 36 68  1  0
 37 69  1  0
 37 70  1  0
 38 71  1  0
 38 72  1  0
M  END
>  <meeko>  (8)
{"is_sidechain": false}

>  <source_group>  (8)
FYN canonical

>  <source_system>  (8)
FYN_saracatinib

>  <source_run>  (8)
vina_seed1103_ex32

>  <source_seed>  (8)
1103

>  <vina_pose_rank>  (8)
8

>  <vina_affinity_kcal_mol>  (8)
-8.7289999999999992

>  <vina_rmsd_to_crystal_angstrom>  (8)
2.0861000000000001

$$$$
FYN_saracatinib__vina_seed1103_ex32__pose09
     RDKit          3D

 72 77  0  0  0  0  0  0  0  0999 V2000
   -6.8060    7.7670   -9.8720 C   0  0  0  0  0  0  0  0  0  0  0  0
   -6.9870    8.5940   -8.6920 N   0  0  0  0  0  0  0  0  0  0  0  0
   -6.2010    9.8100   -8.8060 C   0  0  0  0  0  0  0  0  0  0  0  0
   -6.4150   10.7420   -7.6040 C   0  0  0  0  0  0  0  0  0  0  0  0
   -7.8210   11.0860   -7.4110 N   0  0  0  0  0  0  0  0  0  0  0  0
   -7.9480   11.9130   -6.2160 C   0  0  0  0  0  0  0  0  0  0  0  0
   -8.7510   13.2160   -6.3720 C   0  0  0  0  0  0  0  0  0  0  0  0
  -10.1350   12.9850   -6.4780 O   0  0  0  0  0  0  0  0  0  0  0  0
  -10.7130   13.3510   -7.6680 C   0  0  0  0  0  0  0  0  0  0  0  0
  -11.2340   14.5670   -7.8740 C   0  0  0  0  0  0  0  0  0  0  0  0
  -11.8000   14.8980   -9.0430 C   0  0  0  0  0  0  0  0  0  0  0  0
  -11.8900   14.0280  -10.0880 C   0  0  0  0  0  0  0  0  0  0  0  0
  -11.3730   12.7830   -9.8990 C   0  0  0  0  0  0  0  0  0  0  0  0
  -11.3920   11.8270  -10.8990 O   0  0  0  0  0  0  0  0  0  0  0  0
  -10.8750   10.5310  -10.7260 C   0  0  0  0  0  0  0  0  0  0  0  0
  -11.9530    9.4660  -10.5190 C   0  0  0  0  0  0  0  0  0  0  0  0
  -11.3830    8.0630  -10.7010 C   0  0  0  0  0  0  0  0  0  0  0  0
  -10.7840    7.9260  -11.9660 O   0  0  0  0  0  0  0  0  0  0  0  0
   -9.6610    8.7590  -12.0660 C   0  0  0  0  0  0  0  0  0  0  0  0
  -10.0970   10.2200  -12.0160 C   0  0  0  0  0  0  0  0  0  0  0  0
  -10.8050   12.4980   -8.7050 C   0  0  0  0  0  0  0  0  0  0  0  0
  -12.4870   14.4980  -11.2210 C   0  0  0  0  0  0  0  0  0  0  0  0
  -12.7520   13.9850  -12.3660 N   0  0  0  0  0  0  0  0  0  0  0  0
  -13.7540   13.9000  -13.1580 C   0  0  0  0  0  0  0  0  0  0  0  0
  -14.7100   12.9520  -12.9470 C   0  0  0  0  0  0  0  0  0  0  0  0
  -14.6740   11.8090  -11.6340 Cl  0  0  0  0  0  0  0  0  0  0  0  0
  -15.7840   12.8460  -13.7550 C   0  0  0  0  0  0  0  0  0  0  0  0
  -15.9540   13.6600  -14.8070 C   0  0  0  0  0  0  0  0  0  0  0  0
  -15.0210   14.5890  -15.0280 C   0  0  0  0  0  0  0  0  0  0  0  0
  -13.9520   14.7030  -14.2290 C   0  0  0  0  0  0  0  0  0  0  0  0
  -13.2340   15.6230  -14.6250 O   0  0  0  0  0  0  0  0  0  0  0  0
  -13.7970   16.1550  -15.8240 C   0  0  0  0  0  0  0  0  0  0  0  0
  -15.0070   15.4160  -15.9390 O   0  0  0  0  0  0  0  0  0  0  0  0
  -12.9170   15.7000  -11.2090 N   0  0  0  0  0  0  0  0  0  0  0  0
  -12.7870   16.4250  -10.1840 C   0  0  0  0  0  0  0  0  0  0  0  0
  -12.2490   16.0820   -9.0990 N   0  0  0  0  0  0  0  0  0  0  0  0
   -8.5790    9.8490   -7.2890 C   0  0  0  0  0  0  0  0  0  0  0  0
   -8.3860    8.9350   -8.5140 C   0  0  0  0  0  0  0  0  0  0  0  0
   -6.5801    6.7350   -9.5654 H   0  0  0  0  0  0  0  0  0  0  0  0
   -7.7278    7.7778  -10.4722 H   0  0  0  0  0  0  0  0  0  0  0  0
   -5.9730    8.1618  -10.4722 H   0  0  0  0  0  0  0  0  0  0  0  0
   -5.1358    9.5415   -8.8632 H   0  0  0  0  0  0  0  0  0  0  0  0
   -6.5237   10.3421   -9.7131 H   0  0  0  0  0  0  0  0  0  0  0  0
   -6.0463   10.2399   -6.6974 H   0  0  0  0  0  0  0  0  0  0  0  0
   -5.8650   11.6743   -7.7998 H   0  0  0  0  0  0  0  0  0  0  0  0
   -8.4389   11.3075   -5.4398 H   0  0  0  0  0  0  0  0  0  0  0  0
   -6.9239   12.2273   -5.9662 H   0  0  0  0  0  0  0  0  0  0  0  0
   -8.5655   13.8523   -5.4941 H   0  0  0  0  0  0  0  0  0  0  0  0
   -8.4208   13.7037   -7.3010 H   0  0  0  0  0  0  0  0  0  0  0  0
  -11.1967   15.3116   -7.0652 H   0  0  0  0  0  0  0  0  0  0  0  0
  -10.2530   10.5055   -9.8191 H   0  0  0  0  0  0  0  0  0  0  0  0
  -12.3590    9.5593   -9.5009 H   0  0  0  0  0  0  0  0  0  0  0  0
  -12.7443    9.6207  -11.2672 H   0  0  0  0  0  0  0  0  0  0  0  0
  -10.6281    7.8770   -9.9228 H   0  0  0  0  0  0  0  0  0  0  0  0
  -12.2046    7.3361  -10.6201 H   0  0  0  0  0  0  0  0  0  0  0  0
   -8.9774    8.5528  -11.2292 H   0  0  0  0  0  0  0  0  0  0  0  0
   -9.1478    8.5649  -13.0194 H   0  0  0  0  0  0  0  0  0  0  0  0
   -9.2043   10.8613  -12.0587 H   0  0  0  0  0  0  0  0  0  0  0  0
  -10.7584   10.4129  -12.8735 H   0  0  0  0  0  0  0  0  0  0  0  0
  -10.3854   11.4901   -8.5710 H   0  0  0  0  0  0  0  0  0  0  0  0
  -11.5091   14.8329  -11.5973 H   0  0  0  0  0  0  0  0  0  0  0  0
  -11.9190   13.4910  -12.7810 H   0  0  0  0  0  0  0  0  0  0  0  0
  -16.5388   12.0735  -13.5464 H   0  0  0  0  0  0  0  0  0  0  0  0
  -16.8309   13.5657  -15.4644 H   0  0  0  0  0  0  0  0  0  0  0  0
  -13.9951   17.2328  -15.7281 H   0  0  0  0  0  0  0  0  0  0  0  0
  -13.1382   16.0643  -16.7003 H   0  0  0  0  0  0  0  0  0  0  0  0
  -13.1799   17.4507  -10.2445 H   0  0  0  0  0  0  0  0  0  0  0  0
  -12.1810   16.7000   -8.3360 H   0  0  0  0  0  0  0  0  0  0  0  0
   -8.2432    9.3132   -6.3889 H   0  0  0  0  0  0  0  0  0  0  0  0
   -9.6460   10.1078   -7.2209 H   0  0  0  0  0  0  0  0  0  0  0  0
   -8.9659    8.0116   -8.3689 H   0  0  0  0  0  0  0  0  0  0  0  0
   -8.7332    9.4709   -9.4097 H   0  0  0  0  0  0  0  0  0  0  0  0
  1  2  1  0
  2  3  1  0
  3  4  1  0
  4  5  1  0
  5  6  1  0
  6  7  1  0
  7  8  1  0
  8  9  1  0
  9 10  2  0
 10 11  1  0
 11 12  2  0
 12 13  1  0
 13 14  1  0
 14 15  1  0
 15 16  1  0
 16 17  1  0
 17 18  1  0
 18 19  1  0
 19 20  1  0
 13 21  2  0
 12 22  1  0
 22 23  1  0
 23 24  1  0
 24 25  2  0
 25 26  1  0
 25 27  1  0
 27 28  2  0
 28 29  1  0
 29 30  2  0
 30 31  1  0
 31 32  1  0
 32 33  1  0
 22 34  1  0
 34 35  2  0
 35 36  1  0
  5 37  1  0
 37 38  1  0
 38  2  1  0
 21  9  1  0
 30 24  1  0
 36 11  1  0
 20 15  1  0
 33 29  1  0
  1 39  1  0
  1 40  1  0
  1 41  1  0
  3 42  1  0
  3 43  1  0
  4 44  1  0
  4 45  1  0
  6 46  1  0
  6 47  1  0
  7 48  1  0
  7 49  1  0
 10 50  1  0
 15 51  1  0
 16 52  1  0
 16 53  1  0
 17 54  1  0
 17 55  1  0
 19 56  1  0
 19 57  1  0
 20 58  1  0
 20 59  1  0
 21 60  1  0
 22 61  1  0
 23 62  1  0
 27 63  1  0
 28 64  1  0
 32 65  1  0
 32 66  1  0
 35 67  1  0
 36 68  1  0
 37 69  1  0
 37 70  1  0
 38 71  1  0
 38 72  1  0
M  END
>  <meeko>  (9)
{"is_sidechain": false}

>  <source_group>  (9)
FYN canonical

>  <source_system>  (9)
FYN_saracatinib

>  <source_run>  (9)
vina_seed1103_ex32

>  <source_seed>  (9)
1103

>  <vina_pose_rank>  (9)
9

>  <vina_affinity_kcal_mol>  (9)
-8.6010000000000009

>  <vina_rmsd_to_crystal_angstrom>  (9)
4.5568999999999997

$$$$
FYN_saracatinib__vina_seed1103_ex32__pose10
     RDKit          3D

 72 77  0  0  0  0  0  0  0  0999 V2000
  -16.1740   13.4350  -17.0180 C   0  0  0  0  0  0  0  0  0  0  0  0
  -15.6240   13.6750  -15.6950 N   0  0  0  0  0  0  0  0  0  0  0  0
  -14.6970   14.7920  -15.7320 C   0  0  0  0  0  0  0  0  0  0  0  0
  -14.1420   15.1180  -14.3380 C   0  0  0  0  0  0  0  0  0  0  0  0
  -15.1990   15.3940  -13.3690 N   0  0  0  0  0  0  0  0  0  0  0  0
  -14.5960   15.6260  -12.0610 C   0  0  0  0  0  0  0  0  0  0  0  0
  -13.1300   15.1900  -11.9000 C   0  0  0  0  0  0  0  0  0  0  0  0
  -12.9530   14.2820  -10.8390 O   0  0  0  0  0  0  0  0  0  0  0  0
  -11.9940   14.6200   -9.9160 C   0  0  0  0  0  0  0  0  0  0  0  0
  -12.0530   15.7430   -9.1910 C   0  0  0  0  0  0  0  0  0  0  0  0
  -11.0990   16.0540   -8.3010 C   0  0  0  0  0  0  0  0  0  0  0  0
  -10.0130   15.2600   -8.0810 C   0  0  0  0  0  0  0  0  0  0  0  0
   -9.9280   14.1150   -8.8130 C   0  0  0  0  0  0  0  0  0  0  0  0
   -8.8790   13.2280   -8.6570 O   0  0  0  0  0  0  0  0  0  0  0  0
   -9.0490   11.8310   -8.6870 C   0  0  0  0  0  0  0  0  0  0  0  0
   -7.9540   11.1010   -9.4660 C   0  0  0  0  0  0  0  0  0  0  0  0
   -7.9730    9.6050   -9.1690 C   0  0  0  0  0  0  0  0  0  0  0  0
   -7.8470    9.3660   -7.7890 O   0  0  0  0  0  0  0  0  0  0  0  0
   -8.9680    9.8580   -7.1050 C   0  0  0  0  0  0  0  0  0  0  0  0
   -9.0160   11.3780   -7.2180 C   0  0  0  0  0  0  0  0  0  0  0  0
  -10.9190   13.8410   -9.6930 C   0  0  0  0  0  0  0  0  0  0  0  0
   -9.1210   15.6950   -7.1440 C   0  0  0  0  0  0  0  0  0  0  0  0
   -8.0140   15.2370   -6.6900 N   0  0  0  0  0  0  0  0  0  0  0  0
   -7.4120   15.1550   -5.5630 C   0  0  0  0  0  0  0  0  0  0  0  0
   -6.1960   15.7500   -5.3960 C   0  0  0  0  0  0  0  0  0  0  0  0
   -5.3730   16.6450   -6.6410 Cl  0  0  0  0  0  0  0  0  0  0  0  0
   -5.5440   15.6940   -4.2180 C   0  0  0  0  0  0  0  0  0  0  0  0
   -6.0550   15.0450   -3.1630 C   0  0  0  0  0  0  0  0  0  0  0  0
   -7.2430   14.4540   -3.3150 C   0  0  0  0  0  0  0  0  0  0  0  0
   -7.8990   14.5060   -4.4810 C   0  0  0  0  0  0  0  0  0  0  0  0
   -8.9650   13.8930   -4.3840 O   0  0  0  0  0  0  0  0  0  0  0  0
   -9.0400   13.3120   -3.0830 C   0  0  0  0  0  0  0  0  0  0  0  0
   -7.8610   13.8140   -2.4650 O   0  0  0  0  0  0  0  0  0  0  0  0
   -9.3690   16.8030   -6.5610 N   0  0  0  0  0  0  0  0  0  0  0  0
  -10.4060   17.4660   -6.8410 C   0  0  0  0  0  0  0  0  0  0  0  0
  -11.2840   17.1450   -7.6840 N   0  0  0  0  0  0  0  0  0  0  0  0
  -16.1030   14.2540  -13.3470 C   0  0  0  0  0  0  0  0  0  0  0  0
  -16.6840   13.9540  -14.7420 C   0  0  0  0  0  0  0  0  0  0  0  0
  -17.1785   12.9967  -16.9235 H   0  0  0  0  0  0  0  0  0  0  0  0
  -16.2392   14.3865  -17.5661 H   0  0  0  0  0  0  0  0  0  0  0  0
  -15.5208   12.7401  -17.5661 H   0  0  0  0  0  0  0  0  0  0  0  0
  -13.8595   14.5379  -16.3983 H   0  0  0  0  0  0  0  0  0  0  0  0
  -15.2400   15.6753  -16.0993 H   0  0  0  0  0  0  0  0  0  0  0  0
  -13.5524   14.2599  -13.9829 H   0  0  0  0  0  0  0  0  0  0  0  0
  -13.5232   16.0231  -14.4264 H   0  0  0  0  0  0  0  0  0  0  0  0
  -14.6495   16.7050  -11.8538 H   0  0  0  0  0  0  0  0  0  0  0  0
  -15.1671   15.0002  -11.3594 H   0  0  0  0  0  0  0  0  0  0  0  0
  -12.7995   14.7111  -12.8335 H   0  0  0  0  0  0  0  0  0  0  0  0
  -12.5361   16.0881  -11.6751 H   0  0  0  0  0  0  0  0  0  0  0  0
  -12.9035   16.4270   -9.3280 H   0  0  0  0  0  0  0  0  0  0  0  0
   -9.9914   11.5889   -9.2001 H   0  0  0  0  0  0  0  0  0  0  0  0
   -8.1155   11.2555  -10.5431 H   0  0  0  0  0  0  0  0  0  0  0  0
   -6.9782   11.5057   -9.1594 H   0  0  0  0  0  0  0  0  0  0  0  0
   -8.9237    9.1796   -9.5229 H   0  0  0  0  0  0  0  0  0  0  0  0
   -7.1247    9.1330   -9.6864 H   0  0  0  0  0  0  0  0  0  0  0  0
   -9.8810    9.4301   -7.5448 H   0  0  0  0  0  0  0  0  0  0  0  0
   -8.8995    9.5746   -6.0443 H   0  0  0  0  0  0  0  0  0  0  0  0
   -9.9193   11.7463   -6.7096 H   0  0  0  0  0  0  0  0  0  0  0  0
   -8.1094   11.7886   -6.7496 H   0  0  0  0  0  0  0  0  0  0  0  0
  -10.8399   12.9087  -10.2714 H   0  0  0  0  0  0  0  0  0  0  0  0
   -9.6686   15.1425   -6.3662 H   0  0  0  0  0  0  0  0  0  0  0  0
   -7.4240   14.8010   -7.4480 H   0  0  0  0  0  0  0  0  0  0  0  0
   -4.5687   16.1932   -4.1201 H   0  0  0  0  0  0  0  0  0  0  0  0
   -5.5152   15.0005   -2.2056 H   0  0  0  0  0  0  0  0  0  0  0  0
   -9.9429   13.6432   -2.5491 H   0  0  0  0  0  0  0  0  0  0  0  0
   -9.1026   12.2138   -3.0912 H   0  0  0  0  0  0  0  0  0  0  0  0
  -10.5562   18.4111   -6.2985 H   0  0  0  0  0  0  0  0  0  0  0  0
  -12.0720   17.7110   -7.8540 H   0  0  0  0  0  0  0  0  0  0  0  0
  -15.5519   13.3700  -12.9937 H   0  0  0  0  0  0  0  0  0  0  0  0
  -16.9392   14.4952  -12.6743 H   0  0  0  0  0  0  0  0  0  0  0  0
  -17.3479   13.0795  -14.6753 H   0  0  0  0  0  0  0  0  0  0  0  0
  -17.2441   14.8357  -15.0869 H   0  0  0  0  0  0  0  0  0  0  0  0
  1  2  1  0
  2  3  1  0
  3  4  1  0
  4  5  1  0
  5  6  1  0
  6  7  1  0
  7  8  1  0
  8  9  1  0
  9 10  2  0
 10 11  1  0
 11 12  2  0
 12 13  1  0
 13 14  1  0
 14 15  1  0
 15 16  1  0
 16 17  1  0
 17 18  1  0
 18 19  1  0
 19 20  1  0
 13 21  2  0
 12 22  1  0
 22 23  1  0
 23 24  1  0
 24 25  2  0
 25 26  1  0
 25 27  1  0
 27 28  2  0
 28 29  1  0
 29 30  2  0
 30 31  1  0
 31 32  1  0
 32 33  1  0
 22 34  1  0
 34 35  2  0
 35 36  1  0
  5 37  1  0
 37 38  1  0
 38  2  1  0
 21  9  1  0
 30 24  1  0
 36 11  1  0
 20 15  1  0
 33 29  1  0
  1 39  1  0
  1 40  1  0
  1 41  1  0
  3 42  1  0
  3 43  1  0
  4 44  1  0
  4 45  1  0
  6 46  1  0
  6 47  1  0
  7 48  1  0
  7 49  1  0
 10 50  1  0
 15 51  1  0
 16 52  1  0
 16 53  1  0
 17 54  1  0
 17 55  1  0
 19 56  1  0
 19 57  1  0
 20 58  1  0
 20 59  1  0
 21 60  1  0
 22 61  1  0
 23 62  1  0
 27 63  1  0
 28 64  1  0
 32 65  1  0
 32 66  1  0
 35 67  1  0
 36 68  1  0
 37 69  1  0
 37 70  1  0
 38 71  1  0
 38 72  1  0
M  END
>  <meeko>  (10)
{"is_sidechain": false}

>  <source_group>  (10)
FYN canonical

>  <source_system>  (10)
FYN_saracatinib

>  <source_run>  (10)
vina_seed1103_ex32

>  <source_seed>  (10)
1103

>  <vina_pose_rank>  (10)
10

>  <vina_affinity_kcal_mol>  (10)
-8.5549999999999997

>  <vina_rmsd_to_crystal_angstrom>  (10)
9.6172000000000004

$$$$
