FYN_saracatinib__vina_seed1103_ex32__pose01


 40 45  0  0  0  0  0  0  0  0999 V2000
   -9.9520   15.7520   -7.4150 C   0  0  0  0  0  0  0  0  0  0  0  0
  -11.0260   16.5130   -7.6540 C   0  0  0  0  0  0  0  0  0  0  0  0
  -11.7930   16.3230   -8.7380 C   0  0  0  0  0  0  0  0  0  0  0  0
  -11.5370   15.3500   -9.6570 C   0  0  0  0  0  0  0  0  0  0  0  0
  -10.4520   14.5590   -9.4310 C   0  0  0  0  0  0  0  0  0  0  0  0
   -9.7060   14.7930   -8.3270 C   0  0  0  0  0  0  0  0  0  0  0  0
  -12.3950   15.2710  -10.7140 C   0  0  0  0  0  0  0  0  0  0  0  0
  -13.3640   16.1010  -10.7530 N   0  0  0  0  0  0  0  0  0  0  0  0
  -13.5150   16.9650   -9.8460 C   0  0  0  0  0  0  0  0  0  0  0  0
  -12.7760   17.1170   -8.8390 N   0  0  0  0  0  0  0  0  0  0  0  0
  -12.9510   17.8140   -8.1660 H   0  0  0  0  0  0  0  0  0  0  0  0
  -12.4780   14.5030  -11.7380 N   0  0  0  0  0  0  0  0  0  0  0  0
  -11.5570   14.0420  -11.9630 H   0  0  0  0  0  0  0  0  0  0  0  0
  -13.3720   14.1330  -12.5760 C   0  0  0  0  0  0  0  0  0  0  0  0
  -14.0990   13.0040  -12.3400 C   0  0  0  0  0  0  0  0  0  0  0  0
  -13.9000   11.9940  -10.9370 Cl  0  0  0  0  0  0  0  0  0  0  0  0
  -15.0570   12.5950  -13.1960 C   0  0  0  0  0  0  0  0  0  0  0  0
  -15.3310   13.2730  -14.3190 C   0  0  0  0  0  0  0  0  0  0  0  0
  -14.6210   14.3780  -14.5640 C   0  0  0  0  0  0  0  0  0  0  0  0
  -13.6690   14.7920  -13.7180 C   0  0  0  0  0  0  0  0  0  0  0  0
  -13.1540   15.8260  -14.1500 O   0  0  0  0  0  0  0  0  0  0  0  0
  -13.7330   16.1290  -15.4180 C   0  0  0  0  0  0  0  0  0  0  0  0
  -14.7290   15.1210  -15.5390 O   0  0  0  0  0  0  0  0  0  0  0  0
   -9.1560   15.9200   -6.3080 O   0  0  0  0  0  0  0  0  0  0  0  0
   -7.7890   15.6350   -6.4880 C   0  0  0  0  0  0  0  0  0  0  0  0
   -7.1170   15.1430   -5.1940 C   0  0  0  0  0  0  0  0  0  0  0  0
   -9.3830   13.7450   -0.2170 C   0  0  0  0  0  0  0  0  0  0  0  0
   -8.5250   13.9110   -1.3780 N   0  0  0  0  0  0  0  0  0  0  0  0
   -9.1900   13.4140   -2.5690 C   0  0  0  0  0  0  0  0  0  0  0  0
   -8.3390   13.6300   -3.8290 C   0  0  0  0  0  0  0  0  0  0  0  0
   -7.9780   15.0310   -4.0210 N   0  0  0  0  0  0  0  0  0  0  0  0
   -7.3040   15.4960   -2.8180 C   0  0  0  0  0  0  0  0  0  0  0  0
   -8.1770   15.3080   -1.5620 C   0  0  0  0  0  0  0  0  0  0  0  0
  -10.0890   13.5530  -10.3080 O   0  0  0  0  0  0  0  0  0  0  0  0
   -9.9830   12.2040   -9.9220 C   0  0  0  0  0  0  0  0  0  0  0  0
  -11.0170   11.7860   -8.8760 C   0  0  0  0  0  0  0  0  0  0  0  0
  -11.1010   10.2680   -8.7630 C   0  0  0  0  0  0  0  0  0  0  0  0
  -11.3920    9.6880  -10.0110 O   0  0  0  0  0  0  0  0  0  0  0  0
  -10.3330    9.8990  -10.9050 C   0  0  0  0  0  0  0  0  0  0  0  0
  -10.2020   11.3880  -11.2070 C   0  0  0  0  0  0  0  0  0  0  0  0
 27 28  1  0
 28 29  1  0
 29 30  1  0
 30 31  1  0
 31 26  1  0
 26 25  1  0
 25 24  1  0
 24  1  1  0
  1  2  2  0
  2  3  1  0
  3  4  2  0
  4  5  1  0
  5 34  1  0
 34 35  1  0
 35 36  1  0
 36 37  1  0
 37 38  1  0
 38 39  1  0
 39 40  1  0
  5  6  2  0
  4  7  1  0
  7 12  1  0
 12 14  1  0
 14 15  2  0
 15 16  1  0
 15 17  1  0
 17 18  2  0
 18 19  1  0
 19 20  2  0
 20 21  1  0
 21 22  1  0
 22 23  1  0
  7  8  1  0
  8  9  2  0
  9 10  1  0
 31 32  1  0
 32 33  1  0
 33 28  1  0
  6  1  1  0
 20 14  1  0
 10  3  1  0
 40 35  1  0
 23 19  1  0
 12 13  1  0
 10 11  1  0
M  END
> <meeko>
{"is_sidechain": false}

> <source_group>
FYN canonical

> <source_system>
FYN_saracatinib

> <source_run>
vina_seed1103_ex32

> <source_seed>
1103

> <vina_pose_rank>
1

> <vina_affinity_kcal_mol>
-9.1500000000000004

> <vina_rmsd_to_crystal_angstrom>
1.919

> <minimizedAffinity>
-9.15745

> <CNNscore>
0.6020350456

> <CNNaffinity>
7.6098942757

> <CNN_VS>
4.5814232826

> <CNNaffinity_variance>
0.1163109764

$$$$
FYN_saracatinib__vina_seed1103_ex32__pose02


 40 45  0  0  0  0  0  0  0  0999 V2000
  -10.1410   16.0960   -7.3800 C   0  0  0  0  0  0  0  0  0  0  0  0
  -11.2600   16.7630   -7.6870 C   0  0  0  0  0  0  0  0  0  0  0  0
  -11.9690   16.4740   -8.7870 C   0  0  0  0  0  0  0  0  0  0  0  0
  -11.6080   15.4880   -9.6550 C   0  0  0  0  0  0  0  0  0  0  0  0
  -10.4760   14.7900   -9.3600 C   0  0  0  0  0  0  0  0  0  0  0  0
   -9.7910   15.1240   -8.2420 C   0  0  0  0  0  0  0  0  0  0  0  0
  -12.4180   15.3020  -10.7370 C   0  0  0  0  0  0  0  0  0  0  0  0
  -13.4440   16.0550  -10.8440 N   0  0  0  0  0  0  0  0  0  0  0  0
  -13.6920   16.9400   -9.9790 C   0  0  0  0  0  0  0  0  0  0  0  0
  -13.0040   17.1860   -8.9550 N   0  0  0  0  0  0  0  0  0  0  0  0
  -13.2550   17.8940   -8.3190 H   0  0  0  0  0  0  0  0  0  0  0  0
  -12.4050   14.4910  -11.7300 N   0  0  0  0  0  0  0  0  0  0  0  0
  -11.4320   14.3340  -12.1010 H   0  0  0  0  0  0  0  0  0  0  0  0
  -13.2500   13.8080  -12.4070 C   0  0  0  0  0  0  0  0  0  0  0  0
  -13.6610   14.2530  -13.6290 C   0  0  0  0  0  0  0  0  0  0  0  0
  -13.1040   15.7290  -14.3640 Cl  0  0  0  0  0  0  0  0  0  0  0  0
  -14.5380   13.5490  -14.3720 C   0  0  0  0  0  0  0  0  0  0  0  0
  -15.0520   12.3890  -13.9420 C   0  0  0  0  0  0  0  0  0  0  0  0
  -14.6610   11.9450  -12.7440 C   0  0  0  0  0  0  0  0  0  0  0  0
  -13.7890   12.6360  -12.0000 C   0  0  0  0  0  0  0  0  0  0  0  0
  -13.5800   12.0360  -10.9430 O   0  0  0  0  0  0  0  0  0  0  0  0
  -14.4090   10.8760  -10.9060 C   0  0  0  0  0  0  0  0  0  0  0  0
  -15.0270   10.9110  -12.1880 O   0  0  0  0  0  0  0  0  0  0  0  0
   -9.4010   16.3680   -6.2550 O   0  0  0  0  0  0  0  0  0  0  0  0
   -8.0040   16.3190   -6.4140 C   0  0  0  0  0  0  0  0  0  0  0  0
   -7.3100   15.5440   -5.2800 C   0  0  0  0  0  0  0  0  0  0  0  0
   -9.2250   13.7110   -0.2970 C   0  0  0  0  0  0  0  0  0  0  0  0
   -8.4320   14.0200   -1.4740 N   0  0  0  0  0  0  0  0  0  0  0  0
   -9.0710   13.4870   -2.6640 C   0  0  0  0  0  0  0  0  0  0  0  0
   -8.2950   13.8480   -3.9390 C   0  0  0  0  0  0  0  0  0  0  0  0
   -8.1110   15.2890   -4.0880 N   0  0  0  0  0  0  0  0  0  0  0  0
   -7.4590   15.7900   -2.8880 C   0  0  0  0  0  0  0  0  0  0  0  0
   -8.2610   15.4550   -1.6160 C   0  0  0  0  0  0  0  0  0  0  0  0
  -10.0070   13.7820  -10.1810 O   0  0  0  0  0  0  0  0  0  0  0  0
   -9.8970   12.4430   -9.7610 C   0  0  0  0  0  0  0  0  0  0  0  0
  -11.0240   12.0030   -8.8260 C   0  0  0  0  0  0  0  0  0  0  0  0
  -11.0680   10.4840   -8.6940 C   0  0  0  0  0  0  0  0  0  0  0  0
  -11.1990    9.8750   -9.9560 O   0  0  0  0  0  0  0  0  0  0  0  0
  -10.0560   10.1120  -10.7320 C   0  0  0  0  0  0  0  0  0  0  0  0
   -9.9440   11.6000  -11.0460 C   0  0  0  0  0  0  0  0  0  0  0  0
 27 28  1  0
 28 29  1  0
 29 30  1  0
 30 31  1  0
 31 26  1  0
 26 25  1  0
 25 24  1  0
 24  1  1  0
  1  2  2  0
  2  3  1  0
  3  4  2  0
  4  5  1  0
  5 34  1  0
 34 35  1  0
 35 36  1  0
 36 37  1  0
 37 38  1  0
 38 39  1  0
 39 40  1  0
  5  6  2  0
  4  7  1  0
  7 12  1  0
 12 14  1  0
 14 15  2  0
 15 16  1  0
 15 17  1  0
 17 18  2  0
 18 19  1  0
 19 20  2  0
 20 21  1  0
 21 22  1  0
 22 23  1  0
  7  8  1  0
  8  9  2  0
  9 10  1  0
 31 32  1  0
 32 33  1  0
 33 28  1  0
  6  1  1  0
 20 14  1  0
 10  3  1  0
 40 35  1  0
 23 19  1  0
 12 13  1  0
 10 11  1  0
M  END
> <meeko>
{"is_sidechain": false}

> <source_group>
FYN canonical

> <source_system>
FYN_saracatinib

> <source_run>
vina_seed1103_ex32

> <source_seed>
1103

> <vina_pose_rank>
2

> <vina_affinity_kcal_mol>
-9.1120000000000001

> <vina_rmsd_to_crystal_angstrom>
2.6654

> <minimizedAffinity>
-8.97444

> <CNNscore>
0.7885863185

> <CNNaffinity>
7.7554817200

> <CNN_VS>
6.1158666611

> <CNNaffinity_variance>
0.1245211735

$$$$
FYN_saracatinib__vina_seed1103_ex32__pose03


 40 45  0  0  0  0  0  0  0  0999 V2000
  -10.3530   15.7930   -7.6870 C   0  0  0  0  0  0  0  0  0  0  0  0
  -11.4360   16.5320   -7.9560 C   0  0  0  0  0  0  0  0  0  0  0  0
  -12.1690   16.3250   -9.0590 C   0  0  0  0  0  0  0  0  0  0  0  0
  -11.8700   15.3570   -9.9700 C   0  0  0  0  0  0  0  0  0  0  0  0
  -10.7760   14.5880   -9.7140 C   0  0  0  0  0  0  0  0  0  0  0  0
  -10.0640   14.8380   -8.5910 C   0  0  0  0  0  0  0  0  0  0  0  0
  -12.6990   15.2600  -11.0490 C   0  0  0  0  0  0  0  0  0  0  0  0
  -13.6820   16.0700  -11.1150 N   0  0  0  0  0  0  0  0  0  0  0  0
  -13.8740   16.9320  -10.2140 C   0  0  0  0  0  0  0  0  0  0  0  0
  -13.1650   17.0990   -9.1880 N   0  0  0  0  0  0  0  0  0  0  0  0
  -13.3720   17.7940   -8.5210 H   0  0  0  0  0  0  0  0  0  0  0  0
  -12.7390   14.4890  -12.0730 N   0  0  0  0  0  0  0  0  0  0  0  0
  -11.8140   14.0160  -12.2500 H   0  0  0  0  0  0  0  0  0  0  0  0
  -13.5940   14.1260  -12.9540 C   0  0  0  0  0  0  0  0  0  0  0  0
  -14.3460   13.0070  -12.7520 C   0  0  0  0  0  0  0  0  0  0  0  0
  -14.2310   12.0010  -11.3360 Cl  0  0  0  0  0  0  0  0  0  0  0  0
  -15.2640   12.6070  -13.6530 C   0  0  0  0  0  0  0  0  0  0  0  0
  -15.4720   13.2830  -14.7920 C   0  0  0  0  0  0  0  0  0  0  0  0
  -14.7380   14.3780  -15.0040 C   0  0  0  0  0  0  0  0  0  0  0  0
  -13.8250   14.7850  -14.1130 C   0  0  0  0  0  0  0  0  0  0  0  0
  -13.2750   15.8100  -14.5210 O   0  0  0  0  0  0  0  0  0  0  0  0
  -13.7850   16.1140  -15.8190 C   0  0  0  0  0  0  0  0  0  0  0  0
  -14.7860   15.1180  -15.9860 O   0  0  0  0  0  0  0  0  0  0  0  0
   -9.5900   15.9780   -6.5610 O   0  0  0  0  0  0  0  0  0  0  0  0
   -8.3470   15.3180   -6.5470 C   0  0  0  0  0  0  0  0  0  0  0  0
   -8.1830   14.4030   -5.3220 C   0  0  0  0  0  0  0  0  0  0  0  0
   -7.4120    9.3940   -7.8080 C   0  0  0  0  0  0  0  0  0  0  0  0
   -7.6110   10.8010   -7.5060 N   0  0  0  0  0  0  0  0  0  0  0  0
   -8.8410   10.9830   -6.7550 C   0  0  0  0  0  0  0  0  0  0  0  0
   -9.0550   12.4510   -6.3600 C   0  0  0  0  0  0  0  0  0  0  0  0
   -7.9340   12.9920   -5.5980 N   0  0  0  0  0  0  0  0  0  0  0  0
   -6.7210   12.8050   -6.3800 C   0  0  0  0  0  0  0  0  0  0  0  0
   -6.4930   11.3250   -6.7420 C   0  0  0  0  0  0  0  0  0  0  0  0
  -10.3700   13.5890  -10.5790 O   0  0  0  0  0  0  0  0  0  0  0  0
  -10.3070   12.2330  -10.2060 C   0  0  0  0  0  0  0  0  0  0  0  0
  -11.4480   11.8010   -9.2840 C   0  0  0  0  0  0  0  0  0  0  0  0
  -11.5450   10.2810   -9.2050 C   0  0  0  0  0  0  0  0  0  0  0  0
  -11.7000    9.7220  -10.4860 O   0  0  0  0  0  0  0  0  0  0  0  0
  -10.5510    9.9440  -11.2580 C   0  0  0  0  0  0  0  0  0  0  0  0
  -10.3870   11.4380  -11.5190 C   0  0  0  0  0  0  0  0  0  0  0  0
 27 28  1  0
 28 29  1  0
 29 30  1  0
 30 31  1  0
 31 26  1  0
 26 25  1  0
 25 24  1  0
 24  1  1  0
  1  2  2  0
  2  3  1  0
  3  4  2  0
  4  5  1  0
  5 34  1  0
 34 35  1  0
 35 36  1  0
 36 37  1  0
 37 38  1  0
 38 39  1  0
 39 40  1  0
  5  6  2  0
  4  7  1  0
  7 12  1  0
 12 14  1  0
 14 15  2  0
 15 16  1  0
 15 17  1  0
 17 18  2  0
 18 19  1  0
 19 20  2  0
 20 21  1  0
 21 22  1  0
 22 23  1  0
  7  8  1  0
  8  9  2  0
  9 10  1  0
 31 32  1  0
 32 33  1  0
 33 28  1  0
  6  1  1  0
 20 14  1  0
 10  3  1  0
 40 35  1  0
 23 19  1  0
 12 13  1  0
 10 11  1  0
M  END
> <meeko>
{"is_sidechain": false}

> <source_group>
FYN canonical

> <source_system>
FYN_saracatinib

> <source_run>
vina_seed1103_ex32

> <source_seed>
1103

> <vina_pose_rank>
3

> <vina_affinity_kcal_mol>
-8.9779999999999998

> <vina_rmsd_to_crystal_angstrom>
3.2244999999999999

> <minimizedAffinity>
-8.71450

> <CNNscore>
0.4044741094

> <CNNaffinity>
7.3676877022

> <CNN_VS>
2.9800388813

> <CNNaffinity_variance>
0.2026241869

$$$$
FYN_saracatinib__vina_seed1103_ex32__pose04


 40 45  0  0  0  0  0  0  0  0999 V2000
  -10.7190   13.0770   -7.6400 C   0  0  0  0  0  0  0  0  0  0  0  0
  -11.1990   14.3150   -7.8070 C   0  0  0  0  0  0  0  0  0  0  0  0
  -11.7450   14.7040   -8.9680 C   0  0  0  0  0  0  0  0  0  0  0  0
  -11.8530   13.8750  -10.0430 C   0  0  0  0  0  0  0  0  0  0  0  0
  -11.3770   12.6070   -9.8940 C   0  0  0  0  0  0  0  0  0  0  0  0
  -10.8290   12.2640   -8.7070 C   0  0  0  0  0  0  0  0  0  0  0  0
  -12.4260   14.4020  -11.1640 C   0  0  0  0  0  0  0  0  0  0  0  0
  -12.8190   15.6160  -11.1120 N   0  0  0  0  0  0  0  0  0  0  0  0
  -12.6750   16.3000  -10.0610 C   0  0  0  0  0  0  0  0  0  0  0  0
  -12.1570   15.9030   -8.9860 N   0  0  0  0  0  0  0  0  0  0  0  0
  -12.0750   16.4910   -8.2000 H   0  0  0  0  0  0  0  0  0  0  0  0
  -12.6970   13.9370  -12.3270 N   0  0  0  0  0  0  0  0  0  0  0  0
  -11.8630   13.4710  -12.7720 H   0  0  0  0  0  0  0  0  0  0  0  0
  -13.7060   13.8770  -13.1130 C   0  0  0  0  0  0  0  0  0  0  0  0
  -14.6720   12.9370  -12.9100 C   0  0  0  0  0  0  0  0  0  0  0  0
  -14.6390   11.7720  -11.6170 Cl  0  0  0  0  0  0  0  0  0  0  0  0
  -15.7530   12.8580  -13.7110 C   0  0  0  0  0  0  0  0  0  0  0  0
  -15.9220   13.6900  -14.7480 C   0  0  0  0  0  0  0  0  0  0  0  0
  -14.9790   14.6130  -14.9600 C   0  0  0  0  0  0  0  0  0  0  0  0
  -13.9030   14.7000  -14.1680 C   0  0  0  0  0  0  0  0  0  0  0  0
  -13.1780   15.6190  -14.5550 O   0  0  0  0  0  0  0  0  0  0  0  0
  -13.7430   16.1770  -15.7410 C   0  0  0  0  0  0  0  0  0  0  0  0
  -14.9620   15.4540  -15.8580 O   0  0  0  0  0  0  0  0  0  0  0  0
  -10.1630   12.6510   -6.4590 O   0  0  0  0  0  0  0  0  0  0  0  0
   -8.8120   12.2610   -6.5230 C   0  0  0  0  0  0  0  0  0  0  0  0
   -7.8860   13.2210   -5.7560 C   0  0  0  0  0  0  0  0  0  0  0  0
   -8.4040   18.7150   -4.5700 C   0  0  0  0  0  0  0  0  0  0  0  0
   -7.9230   17.3690   -4.8320 N   0  0  0  0  0  0  0  0  0  0  0  0
   -8.5180   16.4330   -3.8950 C   0  0  0  0  0  0  0  0  0  0  0  0
   -8.0820   14.9880   -4.1800 C   0  0  0  0  0  0  0  0  0  0  0  0
   -8.3900   14.5740   -5.5450 N   0  0  0  0  0  0  0  0  0  0  0  0
   -7.7720   15.5230   -6.4580 C   0  0  0  0  0  0  0  0  0  0  0  0
   -8.2400   16.9660   -6.1900 C   0  0  0  0  0  0  0  0  0  0  0  0
  -11.4180   11.6880  -10.9270 O   0  0  0  0  0  0  0  0  0  0  0  0
  -10.8490   10.4050  -10.8300 C   0  0  0  0  0  0  0  0  0  0  0  0
  -11.8820    9.2920  -10.6470 C   0  0  0  0  0  0  0  0  0  0  0  0
  -11.2670    7.9220  -10.9110 C   0  0  0  0  0  0  0  0  0  0  0  0
  -10.6980    7.8680  -12.1970 O   0  0  0  0  0  0  0  0  0  0  0  0
   -9.6090    8.7470  -12.2850 C   0  0  0  0  0  0  0  0  0  0  0  0
  -10.0960   10.1860  -12.1530 C   0  0  0  0  0  0  0  0  0  0  0  0
 27 28  1  0
 28 29  1  0
 29 30  1  0
 30 31  1  0
 31 26  1  0
 26 25  1  0
 25 24  1  0
 24  1  1  0
  1  2  2  0
  2  3  1  0
  3  4  2  0
  4  5  1  0
  5 34  1  0
 34 35  1  0
 35 36  1  0
 36 37  1  0
 37 38  1  0
 38 39  1  0
 39 40  1  0
  5  6  2  0
  4  7  1  0
  7 12  1  0
 12 14  1  0
 14 15  2  0
 15 16  1  0
 15 17  1  0
 17 18  2  0
 18 19  1  0
 19 20  2  0
 20 21  1  0
 21 22  1  0
 22 23  1  0
  7  8  1  0
  8  9  2  0
  9 10  1  0
 31 32  1  0
 32 33  1  0
 33 28  1  0
  6  1  1  0
 20 14  1  0
 10  3  1  0
 40 35  1  0
 23 19  1  0
 12 13  1  0
 10 11  1  0
M  END
> <meeko>
{"is_sidechain": false}

> <source_group>
FYN canonical

> <source_system>
FYN_saracatinib

> <source_run>
vina_seed1103_ex32

> <source_seed>
1103

> <vina_pose_rank>
4

> <vina_affinity_kcal_mol>
-8.9459999999999997

> <vina_rmsd_to_crystal_angstrom>
2.7911000000000001

> <minimizedAffinity>
-8.80810

> <CNNscore>
0.2830760181

> <CNNaffinity>
7.2153363228

> <CNN_VS>
2.0424885750

> <CNNaffinity_variance>
0.2142514437

$$$$
FYN_saracatinib__vina_seed1103_ex32__pose05


 40 45  0  0  0  0  0  0  0  0999 V2000
  -10.2160   15.9760   -7.3760 C   0  0  0  0  0  0  0  0  0  0  0  0
  -11.3240   16.6670   -7.6660 C   0  0  0  0  0  0  0  0  0  0  0  0
  -12.0220   16.4350   -8.7870 C   0  0  0  0  0  0  0  0  0  0  0  0
  -11.6580   15.4870   -9.6960 C   0  0  0  0  0  0  0  0  0  0  0  0
  -10.5360   14.7670   -9.4190 C   0  0  0  0  0  0  0  0  0  0  0  0
   -9.8620   15.0420   -8.2790 C   0  0  0  0  0  0  0  0  0  0  0  0
  -12.4560   15.3600  -10.7950 C   0  0  0  0  0  0  0  0  0  0  0  0
  -13.4740   16.1250  -10.8790 N   0  0  0  0  0  0  0  0  0  0  0  0
  -13.7250   16.9720   -9.9770 C   0  0  0  0  0  0  0  0  0  0  0  0
  -13.0480   17.1640   -8.9340 N   0  0  0  0  0  0  0  0  0  0  0  0
  -13.3020   17.8440   -8.2680 H   0  0  0  0  0  0  0  0  0  0  0  0
  -12.4370   14.5960  -11.8240 N   0  0  0  0  0  0  0  0  0  0  0  0
  -11.4720   14.5130  -12.2390 H   0  0  0  0  0  0  0  0  0  0  0  0
  -13.2680   13.8950  -12.5000 C   0  0  0  0  0  0  0  0  0  0  0  0
  -13.6700   14.3180  -13.7330 C   0  0  0  0  0  0  0  0  0  0  0  0
  -13.1170   15.7880  -14.4850 Cl  0  0  0  0  0  0  0  0  0  0  0  0
  -14.5330   13.5960  -14.4750 C   0  0  0  0  0  0  0  0  0  0  0  0
  -15.0420   12.4380  -14.0330 C   0  0  0  0  0  0  0  0  0  0  0  0
  -14.6600   12.0160  -12.8240 C   0  0  0  0  0  0  0  0  0  0  0  0
  -13.8020   12.7250  -12.0810 C   0  0  0  0  0  0  0  0  0  0  0  0
  -13.5990   12.1430  -11.0130 O   0  0  0  0  0  0  0  0  0  0  0  0
  -14.4190   10.9760  -10.9680 C   0  0  0  0  0  0  0  0  0  0  0  0
  -15.0230   10.9860  -12.2570 O   0  0  0  0  0  0  0  0  0  0  0  0
   -9.4880   16.1880   -6.2310 O   0  0  0  0  0  0  0  0  0  0  0  0
   -8.3370   15.3910   -6.0790 C   0  0  0  0  0  0  0  0  0  0  0  0
   -8.5430   14.2500   -5.0690 C   0  0  0  0  0  0  0  0  0  0  0  0
   -6.7150    9.7190   -7.8950 C   0  0  0  0  0  0  0  0  0  0  0  0
   -7.2150   11.0230   -7.4960 N   0  0  0  0  0  0  0  0  0  0  0  0
   -8.4500   10.8790   -6.7450 C   0  0  0  0  0  0  0  0  0  0  0  0
   -8.9760   12.2340   -6.2500 C   0  0  0  0  0  0  0  0  0  0  0  0
   -7.9950   12.9500   -5.4410 N   0  0  0  0  0  0  0  0  0  0  0  0
   -6.7760   13.0880   -6.2240 C   0  0  0  0  0  0  0  0  0  0  0  0
   -6.2330   11.7230   -6.6880 C   0  0  0  0  0  0  0  0  0  0  0  0
  -10.0650   13.7930  -10.2800 O   0  0  0  0  0  0  0  0  0  0  0  0
   -9.9640   12.4370   -9.9190 C   0  0  0  0  0  0  0  0  0  0  0  0
  -11.1550   11.9330   -9.1030 C   0  0  0  0  0  0  0  0  0  0  0  0
  -11.1800   10.4090   -9.0510 C   0  0  0  0  0  0  0  0  0  0  0  0
  -11.1960    9.8630  -10.3470 O   0  0  0  0  0  0  0  0  0  0  0  0
   -9.9980   10.1560  -11.0150 C   0  0  0  0  0  0  0  0  0  0  0  0
   -9.8900   11.6600  -11.2440 C   0  0  0  0  0  0  0  0  0  0  0  0
 27 28  1  0
 28 29  1  0
 29 30  1  0
 30 31  1  0
 31 26  1  0
 26 25  1  0
 25 24  1  0
 24  1  1  0
  1  2  2  0
  2  3  1  0
  3  4  2  0
  4  5  1  0
  5 34  1  0
 34 35  1  0
 35 36  1  0
 36 37  1  0
 37 38  1  0
 38 39  1  0
 39 40  1  0
  5  6  2  0
  4  7  1  0
  7 12  1  0
 12 14  1  0
 14 15  2  0
 15 16  1  0
 15 17  1  0
 17 18  2  0
 18 19  1  0
 19 20  2  0
 20 21  1  0
 21 22  1  0
 22 23  1  0
  7  8  1  0
  8  9  2  0
  9 10  1  0
 31 32  1  0
 32 33  1  0
 33 28  1  0
  6  1  1  0
 20 14  1  0
 10  3  1  0
 40 35  1  0
 23 19  1  0
 12 13  1  0
 10 11  1  0
M  END
> <meeko>
{"is_sidechain": false}

> <source_group>
FYN canonical

> <source_system>
FYN_saracatinib

> <source_run>
vina_seed1103_ex32

> <source_seed>
1103

> <vina_pose_rank>
5

> <vina_affinity_kcal_mol>
-8.8279999999999994

> <vina_rmsd_to_crystal_angstrom>
3.7351999999999999

> <minimizedAffinity>
-8.47873

> <CNNscore>
0.5775685310

> <CNNaffinity>
7.4027304649

> <CNN_VS>
4.2755842209

> <CNNaffinity_variance>
0.3914235830

$$$$
FYN_saracatinib__vina_seed1103_ex32__pose06


 40 45  0  0  0  0  0  0  0  0999 V2000
  -11.3050   15.6890   -9.0350 C   0  0  0  0  0  0  0  0  0  0  0  0
  -12.3460   16.5090   -9.2160 C   0  0  0  0  0  0  0  0  0  0  0  0
  -13.2440   16.2980  -10.1890 C   0  0  0  0  0  0  0  0  0  0  0  0
  -13.1630   15.2440  -11.0480 C   0  0  0  0  0  0  0  0  0  0  0  0
  -12.1150   14.3910  -10.8790 C   0  0  0  0  0  0  0  0  0  0  0  0
  -11.2310   14.6490   -9.8870 C   0  0  0  0  0  0  0  0  0  0  0  0
  -14.1420   15.1520  -11.9940 C   0  0  0  0  0  0  0  0  0  0  0  0
  -15.0510   16.0490  -11.9930 N   0  0  0  0  0  0  0  0  0  0  0  0
  -15.0360   16.9870  -11.1490 C   0  0  0  0  0  0  0  0  0  0  0  0
  -14.1760   17.1550  -10.2460 N   0  0  0  0  0  0  0  0  0  0  0  0
  -14.2250   17.9120   -9.6180 H   0  0  0  0  0  0  0  0  0  0  0  0
  -14.3940   14.3190  -12.9350 N   0  0  0  0  0  0  0  0  0  0  0  0
  -14.2700   13.3200  -12.6240 H   0  0  0  0  0  0  0  0  0  0  0  0
  -14.7590   14.3560  -14.1620 C   0  0  0  0  0  0  0  0  0  0  0  0
  -13.9960   15.0160  -15.0790 C   0  0  0  0  0  0  0  0  0  0  0  0
  -12.5100   15.8380  -14.6970 Cl  0  0  0  0  0  0  0  0  0  0  0  0
  -14.3460   15.0610  -16.3790 C   0  0  0  0  0  0  0  0  0  0  0  0
  -15.4610   14.4690  -16.8280 C   0  0  0  0  0  0  0  0  0  0  0  0
  -16.2210   13.8240  -15.9380 C   0  0  0  0  0  0  0  0  0  0  0  0
  -15.8800   13.7720  -14.6440 C   0  0  0  0  0  0  0  0  0  0  0  0
  -16.7250   13.1280  -14.0190 O   0  0  0  0  0  0  0  0  0  0  0  0
  -17.7690   12.7540  -14.9170 C   0  0  0  0  0  0  0  0  0  0  0  0
  -17.2740   13.2300  -16.1630 O   0  0  0  0  0  0  0  0  0  0  0  0
  -10.3760   15.8770   -8.0420 O   0  0  0  0  0  0  0  0  0  0  0  0
  -10.1120   14.7590   -7.2280 C   0  0  0  0  0  0  0  0  0  0  0  0
   -8.7180   14.1620   -7.4850 C   0  0  0  0  0  0  0  0  0  0  0  0
   -8.8970    8.5210   -7.4220 C   0  0  0  0  0  0  0  0  0  0  0  0
   -8.9750    9.9360   -7.1050 N   0  0  0  0  0  0  0  0  0  0  0  0
   -7.6680   10.5540   -7.2400 C   0  0  0  0  0  0  0  0  0  0  0  0
   -7.7220   12.0660   -6.9750 C   0  0  0  0  0  0  0  0  0  0  0  0
   -8.6760   12.7490   -7.8440 N   0  0  0  0  0  0  0  0  0  0  0  0
   -9.9760   12.1150   -7.6770 C   0  0  0  0  0  0  0  0  0  0  0  0
   -9.9220   10.6060   -7.9790 C   0  0  0  0  0  0  0  0  0  0  0  0
  -11.9250   13.2990  -11.7050 O   0  0  0  0  0  0  0  0  0  0  0  0
  -11.9650   11.9720  -11.2380 C   0  0  0  0  0  0  0  0  0  0  0  0
  -13.3700   11.5020  -10.8560 C   0  0  0  0  0  0  0  0  0  0  0  0
  -13.4220    9.9850  -10.7100 C   0  0  0  0  0  0  0  0  0  0  0  0
  -12.9890    9.3540  -11.8910 O   0  0  0  0  0  0  0  0  0  0  0  0
  -11.6320    9.6220  -12.1180 C   0  0  0  0  0  0  0  0  0  0  0  0
  -11.4400   11.1090  -12.3980 C   0  0  0  0  0  0  0  0  0  0  0  0
 27 28  1  0
 28 29  1  0
 29 30  1  0
 30 31  1  0
 31 26  1  0
 26 25  1  0
 25 24  1  0
 24  1  1  0
  1  2  2  0
  2  3  1  0
  3  4  2  0
  4  5  1  0
  5 34  1  0
 34 35  1  0
 35 36  1  0
 36 37  1  0
 37 38  1  0
 38 39  1  0
 39 40  1  0
  5  6  2  0
  4  7  1  0
  7 12  1  0
 12 14  1  0
 14 15  2  0
 15 16  1  0
 15 17  1  0
 17 18  2  0
 18 19  1  0
 19 20  2  0
 20 21  1  0
 21 22  1  0
 22 23  1  0
  7  8  1  0
  8  9  2  0
  9 10  1  0
 31 32  1  0
 32 33  1  0
 33 28  1  0
  6  1  1  0
 20 14  1  0
 10  3  1  0
 40 35  1  0
 23 19  1  0
 12 13  1  0
 10 11  1  0
M  END
> <meeko>
{"is_sidechain": false}

> <source_group>
FYN canonical

> <source_system>
FYN_saracatinib

> <source_run>
vina_seed1103_ex32

> <source_seed>
1103

> <vina_pose_rank>
6

> <vina_affinity_kcal_mol>
-8.8040000000000003

> <vina_rmsd_to_crystal_angstrom>
4.2343000000000002

> <minimizedAffinity>
-8.62550

> <CNNscore>
0.7168589234

> <CNNaffinity>
7.8199706078

> <CNN_VS>
5.6058158875

> <CNNaffinity_variance>
0.3190856874

$$$$
FYN_saracatinib__vina_seed1103_ex32__pose07


 40 45  0  0  0  0  0  0  0  0999 V2000
   -9.9940   15.7330   -7.3620 C   0  0  0  0  0  0  0  0  0  0  0  0
  -11.0790   16.4750   -7.6110 C   0  0  0  0  0  0  0  0  0  0  0  0
  -11.8090   16.2990   -8.7210 C   0  0  0  0  0  0  0  0  0  0  0  0
  -11.5050   15.3590   -9.6590 C   0  0  0  0  0  0  0  0  0  0  0  0
  -10.4080   14.5870   -9.4240 C   0  0  0  0  0  0  0  0  0  0  0  0
   -9.6990   14.8070   -8.2930 C   0  0  0  0  0  0  0  0  0  0  0  0
  -12.3310   15.2900  -10.7430 C   0  0  0  0  0  0  0  0  0  0  0  0
  -13.3170   16.0990  -10.7870 N   0  0  0  0  0  0  0  0  0  0  0  0
  -13.5140   16.9330   -9.8600 C   0  0  0  0  0  0  0  0  0  0  0  0
  -12.8080   17.0720   -8.8290 N   0  0  0  0  0  0  0  0  0  0  0  0
  -13.0190   17.7460   -8.1420 H   0  0  0  0  0  0  0  0  0  0  0  0
  -12.3660   14.5510  -11.7890 N   0  0  0  0  0  0  0  0  0  0  0  0
  -11.4260   14.4890  -12.2630 H   0  0  0  0  0  0  0  0  0  0  0  0
  -13.2290   13.8570  -12.4320 C   0  0  0  0  0  0  0  0  0  0  0  0
  -13.6700   14.2790  -13.6510 C   0  0  0  0  0  0  0  0  0  0  0  0
  -13.1290   15.7390  -14.4290 Cl  0  0  0  0  0  0  0  0  0  0  0  0
  -14.5670   13.5640  -14.3580 C   0  0  0  0  0  0  0  0  0  0  0  0
  -15.0720   12.4130  -13.8920 C   0  0  0  0  0  0  0  0  0  0  0  0
  -14.6520   11.9920  -12.6960 C   0  0  0  0  0  0  0  0  0  0  0  0
  -13.7590   12.6950  -11.9880 C   0  0  0  0  0  0  0  0  0  0  0  0
  -13.5240   12.1140  -10.9260 O   0  0  0  0  0  0  0  0  0  0  0  0
  -14.3550   10.9570  -10.8450 C   0  0  0  0  0  0  0  0  0  0  0  0
  -15.0050   10.9690  -12.1110 O   0  0  0  0  0  0  0  0  0  0  0  0
   -9.2340   15.8870   -6.2290 O   0  0  0  0  0  0  0  0  0  0  0  0
   -8.4440   17.0510   -6.1750 C   0  0  0  0  0  0  0  0  0  0  0  0
   -7.5430   17.0920   -4.9280 C   0  0  0  0  0  0  0  0  0  0  0  0
   -6.9920   22.6540   -4.1420 C   0  0  0  0  0  0  0  0  0  0  0  0
   -7.4140   21.3230   -4.5420 N   0  0  0  0  0  0  0  0  0  0  0  0
   -6.3400   20.6460   -5.2460 C   0  0  0  0  0  0  0  0  0  0  0  0
   -6.7260   19.2110   -5.6300 C   0  0  0  0  0  0  0  0  0  0  0  0
   -7.1280   18.4150   -4.4740 N   0  0  0  0  0  0  0  0  0  0  0  0
   -8.2120   19.1130   -3.7970 C   0  0  0  0  0  0  0  0  0  0  0  0
   -7.8050   20.5400   -3.3840 C   0  0  0  0  0  0  0  0  0  0  0  0
   -9.9960   13.6160  -10.3180 O   0  0  0  0  0  0  0  0  0  0  0  0
   -9.8630   12.2600   -9.9660 C   0  0  0  0  0  0  0  0  0  0  0  0
  -10.8750   11.8000   -8.9160 C   0  0  0  0  0  0  0  0  0  0  0  0
  -10.9330   10.2780   -8.8370 C   0  0  0  0  0  0  0  0  0  0  0  0
  -11.2320    9.7230  -10.0950 O   0  0  0  0  0  0  0  0  0  0  0  0
  -10.1890    9.9720  -10.9980 C   0  0  0  0  0  0  0  0  0  0  0  0
  -10.0860   11.4700  -11.2660 C   0  0  0  0  0  0  0  0  0  0  0  0
 27 28  1  0
 28 29  1  0
 29 30  1  0
 30 31  1  0
 31 26  1  0
 26 25  1  0
 25 24  1  0
 24  1  1  0
  1  2  2  0
  2  3  1  0
  3  4  2  0
  4  5  1  0
  5 34  1  0
 34 35  1  0
 35 36  1  0
 36 37  1  0
 37 38  1  0
 38 39  1  0
 39 40  1  0
  5  6  2  0
  4  7  1  0
  7 12  1  0
 12 14  1  0
 14 15  2  0
 15 16  1  0
 15 17  1  0
 17 18  2  0
 18 19  1  0
 19 20  2  0
 20 21  1  0
 21 22  1  0
 22 23  1  0
  7  8  1  0
  8  9  2  0
  9 10  1  0
 31 32  1  0
 32 33  1  0
 33 28  1  0
  6  1  1  0
 20 14  1  0
 10  3  1  0
 40 35  1  0
 23 19  1  0
 12 13  1  0
 10 11  1  0
M  END
> <meeko>
{"is_sidechain": false}

> <source_group>
FYN canonical

> <source_system>
FYN_saracatinib

> <source_run>
vina_seed1103_ex32

> <source_seed>
1103

> <vina_pose_rank>
7

> <vina_affinity_kcal_mol>
-8.7370000000000001

> <vina_rmsd_to_crystal_angstrom>
2.968

> <minimizedAffinity>
-8.72505

> <CNNscore>
0.8488178253

> <CNNaffinity>
7.8106179237

> <CNN_VS>
6.6297917366

> <CNNaffinity_variance>
0.3107179701

$$$$
FYN_saracatinib__vina_seed1103_ex32__pose08


 40 45  0  0  0  0  0  0  0  0999 V2000
  -10.0430   15.7300   -7.3850 C   0  0  0  0  0  0  0  0  0  0  0  0
  -11.0960   16.5090   -7.6580 C   0  0  0  0  0  0  0  0  0  0  0  0
  -11.8430   16.3190   -8.7550 C   0  0  0  0  0  0  0  0  0  0  0  0
  -11.5900   15.3270   -9.6530 C   0  0  0  0  0  0  0  0  0  0  0  0
  -10.5270   14.5160   -9.3930 C   0  0  0  0  0  0  0  0  0  0  0  0
   -9.7990   14.7520   -8.2780 C   0  0  0  0  0  0  0  0  0  0  0  0
  -12.4280   15.2490  -10.7270 C   0  0  0  0  0  0  0  0  0  0  0  0
  -13.3780   16.0990  -10.7980 N   0  0  0  0  0  0  0  0  0  0  0  0
  -13.5280   16.9800   -9.9080 C   0  0  0  0  0  0  0  0  0  0  0  0
  -12.8070   17.1320   -8.8880 N   0  0  0  0  0  0  0  0  0  0  0  0
  -12.9810   17.8430   -8.2300 H   0  0  0  0  0  0  0  0  0  0  0  0
  -12.5060   14.4680  -11.7400 N   0  0  0  0  0  0  0  0  0  0  0  0
  -11.5930   13.9810  -11.9360 H   0  0  0  0  0  0  0  0  0  0  0  0
  -13.3900   14.1060  -12.5930 C   0  0  0  0  0  0  0  0  0  0  0  0
  -14.1330   12.9850  -12.3690 C   0  0  0  0  0  0  0  0  0  0  0  0
  -13.9680   11.9740  -10.9610 Cl  0  0  0  0  0  0  0  0  0  0  0  0
  -15.0800   12.5860  -13.2400 C   0  0  0  0  0  0  0  0  0  0  0  0
  -15.3280   13.2650  -14.3690 C   0  0  0  0  0  0  0  0  0  0  0  0
  -14.6030   14.3620  -14.6020 C   0  0  0  0  0  0  0  0  0  0  0  0
  -13.6610   14.7670  -13.7410 C   0  0  0  0  0  0  0  0  0  0  0  0
  -13.1270   15.7950  -14.1640 O   0  0  0  0  0  0  0  0  0  0  0  0
  -13.6810   16.1030  -15.4430 C   0  0  0  0  0  0  0  0  0  0  0  0
  -14.6860   15.1050  -15.5790 O   0  0  0  0  0  0  0  0  0  0  0  0
   -9.2660   15.8980   -6.2650 O   0  0  0  0  0  0  0  0  0  0  0  0
   -9.4330   17.1170   -5.5810 C   0  0  0  0  0  0  0  0  0  0  0  0
   -8.5510   17.2100   -4.3250 C   0  0  0  0  0  0  0  0  0  0  0  0
   -6.1240   22.2750   -4.8900 C   0  0  0  0  0  0  0  0  0  0  0  0
   -7.0220   21.1330   -4.9080 N   0  0  0  0  0  0  0  0  0  0  0  0
   -6.4130   20.0260   -5.6220 C   0  0  0  0  0  0  0  0  0  0  0  0
   -7.3070   18.7770   -5.6070 C   0  0  0  0  0  0  0  0  0  0  0  0
   -7.6490   18.3550   -4.2520 N   0  0  0  0  0  0  0  0  0  0  0  0
   -8.2670   19.4810   -3.5680 C   0  0  0  0  0  0  0  0  0  0  0  0
   -7.3500   20.7190   -3.5560 C   0  0  0  0  0  0  0  0  0  0  0  0
  -10.1680   13.4900  -10.2470 O   0  0  0  0  0  0  0  0  0  0  0  0
   -9.7940   12.2120   -9.7910 C   0  0  0  0  0  0  0  0  0  0  0  0
  -10.9450   11.4300   -9.1570 C   0  0  0  0  0  0  0  0  0  0  0  0
  -10.5930    9.9530   -9.0160 C   0  0  0  0  0  0  0  0  0  0  0  0
  -10.2410    9.4000  -10.2610 O   0  0  0  0  0  0  0  0  0  0  0  0
   -9.0570    9.9820  -10.7350 C   0  0  0  0  0  0  0  0  0  0  0  0
   -9.2930   11.4590  -11.0350 C   0  0  0  0  0  0  0  0  0  0  0  0
 27 28  1  0
 28 29  1  0
 29 30  1  0
 30 31  1  0
 31 26  1  0
 26 25  1  0
 25 24  1  0
 24  1  1  0
  1  2  2  0
  2  3  1  0
  3  4  2  0
  4  5  1  0
  5 34  1  0
 34 35  1  0
 35 36  1  0
 36 37  1  0
 37 38  1  0
 38 39  1  0
 39 40  1  0
  5  6  2  0
  4  7  1  0
  7 12  1  0
 12 14  1  0
 14 15  2  0
 15 16  1  0
 15 17  1  0
 17 18  2  0
 18 19  1  0
 19 20  2  0
 20 21  1  0
 21 22  1  0
 22 23  1  0
  7  8  1  0
  8  9  2  0
  9 10  1  0
 31 32  1  0
 32 33  1  0
 33 28  1  0
  6  1  1  0
 20 14  1  0
 10  3  1  0
 40 35  1  0
 23 19  1  0
 12 13  1  0
 10 11  1  0
M  END
> <meeko>
{"is_sidechain": false}

> <source_group>
FYN canonical

> <source_system>
FYN_saracatinib

> <source_run>
vina_seed1103_ex32

> <source_seed>
1103

> <vina_pose_rank>
8

> <vina_affinity_kcal_mol>
-8.7289999999999992

> <vina_rmsd_to_crystal_angstrom>
2.0861000000000001

> <minimizedAffinity>
-8.84637

> <CNNscore>
0.7613512874

> <CNNaffinity>
7.6215281487

> <CNN_VS>
5.8026604652

> <CNNaffinity_variance>
0.0855008364

$$$$
FYN_saracatinib__vina_seed1103_ex32__pose09


 40 45  0  0  0  0  0  0  0  0999 V2000
  -10.7130   13.3510   -7.6680 C   0  0  0  0  0  0  0  0  0  0  0  0
  -11.2340   14.5670   -7.8740 C   0  0  0  0  0  0  0  0  0  0  0  0
  -11.8000   14.8980   -9.0430 C   0  0  0  0  0  0  0  0  0  0  0  0
  -11.8900   14.0280  -10.0880 C   0  0  0  0  0  0  0  0  0  0  0  0
  -11.3730   12.7830   -9.8990 C   0  0  0  0  0  0  0  0  0  0  0  0
  -10.8050   12.4980   -8.7050 C   0  0  0  0  0  0  0  0  0  0  0  0
  -12.4870   14.4980  -11.2210 C   0  0  0  0  0  0  0  0  0  0  0  0
  -12.9170   15.7000  -11.2090 N   0  0  0  0  0  0  0  0  0  0  0  0
  -12.7870   16.4250  -10.1840 C   0  0  0  0  0  0  0  0  0  0  0  0
  -12.2490   16.0820   -9.0990 N   0  0  0  0  0  0  0  0  0  0  0  0
  -12.1810   16.7000   -8.3360 H   0  0  0  0  0  0  0  0  0  0  0  0
  -12.7520   13.9850  -12.3660 N   0  0  0  0  0  0  0  0  0  0  0  0
  -11.9190   13.4910  -12.7810 H   0  0  0  0  0  0  0  0  0  0  0  0
  -13.7540   13.9000  -13.1580 C   0  0  0  0  0  0  0  0  0  0  0  0
  -14.7100   12.9520  -12.9470 C   0  0  0  0  0  0  0  0  0  0  0  0
  -14.6740   11.8090  -11.6340 Cl  0  0  0  0  0  0  0  0  0  0  0  0
  -15.7840   12.8460  -13.7550 C   0  0  0  0  0  0  0  0  0  0  0  0
  -15.9540   13.6600  -14.8070 C   0  0  0  0  0  0  0  0  0  0  0  0
  -15.0210   14.5890  -15.0280 C   0  0  0  0  0  0  0  0  0  0  0  0
  -13.9520   14.7030  -14.2290 C   0  0  0  0  0  0  0  0  0  0  0  0
  -13.2340   15.6230  -14.6250 O   0  0  0  0  0  0  0  0  0  0  0  0
  -13.7970   16.1550  -15.8240 C   0  0  0  0  0  0  0  0  0  0  0  0
  -15.0070   15.4160  -15.9390 O   0  0  0  0  0  0  0  0  0  0  0  0
  -10.1350   12.9850   -6.4780 O   0  0  0  0  0  0  0  0  0  0  0  0
   -8.7510   13.2160   -6.3720 C   0  0  0  0  0  0  0  0  0  0  0  0
   -7.9480   11.9130   -6.2160 C   0  0  0  0  0  0  0  0  0  0  0  0
   -6.8060    7.7670   -9.8720 C   0  0  0  0  0  0  0  0  0  0  0  0
   -6.9870    8.5940   -8.6920 N   0  0  0  0  0  0  0  0  0  0  0  0
   -6.2010    9.8100   -8.8060 C   0  0  0  0  0  0  0  0  0  0  0  0
   -6.4150   10.7420   -7.6040 C   0  0  0  0  0  0  0  0  0  0  0  0
   -7.8210   11.0860   -7.4110 N   0  0  0  0  0  0  0  0  0  0  0  0
   -8.5790    9.8490   -7.2890 C   0  0  0  0  0  0  0  0  0  0  0  0
   -8.3860    8.9350   -8.5140 C   0  0  0  0  0  0  0  0  0  0  0  0
  -11.3920   11.8270  -10.8990 O   0  0  0  0  0  0  0  0  0  0  0  0
  -10.8750   10.5310  -10.7260 C   0  0  0  0  0  0  0  0  0  0  0  0
  -11.9530    9.4660  -10.5190 C   0  0  0  0  0  0  0  0  0  0  0  0
  -11.3830    8.0630  -10.7010 C   0  0  0  0  0  0  0  0  0  0  0  0
  -10.7840    7.9260  -11.9660 O   0  0  0  0  0  0  0  0  0  0  0  0
   -9.6610    8.7590  -12.0660 C   0  0  0  0  0  0  0  0  0  0  0  0
  -10.0970   10.2200  -12.0160 C   0  0  0  0  0  0  0  0  0  0  0  0
 27 28  1  0
 28 29  1  0
 29 30  1  0
 30 31  1  0
 31 26  1  0
 26 25  1  0
 25 24  1  0
 24  1  1  0
  1  2  2  0
  2  3  1  0
  3  4  2  0
  4  5  1  0
  5 34  1  0
 34 35  1  0
 35 36  1  0
 36 37  1  0
 37 38  1  0
 38 39  1  0
 39 40  1  0
  5  6  2  0
  4  7  1  0
  7 12  1  0
 12 14  1  0
 14 15  2  0
 15 16  1  0
 15 17  1  0
 17 18  2  0
 18 19  1  0
 19 20  2  0
 20 21  1  0
 21 22  1  0
 22 23  1  0
  7  8  1  0
  8  9  2  0
  9 10  1  0
 31 32  1  0
 32 33  1  0
 33 28  1  0
  6  1  1  0
 20 14  1  0
 10  3  1  0
 40 35  1  0
 23 19  1  0
 12 13  1  0
 10 11  1  0
M  END
> <meeko>
{"is_sidechain": false}

> <source_group>
FYN canonical

> <source_system>
FYN_saracatinib

> <source_run>
vina_seed1103_ex32

> <source_seed>
1103

> <vina_pose_rank>
9

> <vina_affinity_kcal_mol>
-8.6010000000000009

> <vina_rmsd_to_crystal_angstrom>
4.5568999999999997

> <minimizedAffinity>
-8.25749

> <CNNscore>
0.3963486552

> <CNNaffinity>
7.3481559753

> <CNN_VS>
2.9124317169

> <CNNaffinity_variance>
0.0971014127

$$$$
FYN_saracatinib__vina_seed1103_ex32__pose10


 40 45  0  0  0  0  0  0  0  0999 V2000
  -11.9940   14.6200   -9.9160 C   0  0  0  0  0  0  0  0  0  0  0  0
  -12.0530   15.7430   -9.1910 C   0  0  0  0  0  0  0  0  0  0  0  0
  -11.0990   16.0540   -8.3010 C   0  0  0  0  0  0  0  0  0  0  0  0
  -10.0130   15.2600   -8.0810 C   0  0  0  0  0  0  0  0  0  0  0  0
   -9.9280   14.1150   -8.8130 C   0  0  0  0  0  0  0  0  0  0  0  0
  -10.9190   13.8410   -9.6930 C   0  0  0  0  0  0  0  0  0  0  0  0
   -9.1210   15.6950   -7.1440 C   0  0  0  0  0  0  0  0  0  0  0  0
   -9.3690   16.8030   -6.5610 N   0  0  0  0  0  0  0  0  0  0  0  0
  -10.4060   17.4660   -6.8410 C   0  0  0  0  0  0  0  0  0  0  0  0
  -11.2840   17.1450   -7.6840 N   0  0  0  0  0  0  0  0  0  0  0  0
  -12.0720   17.7110   -7.8540 H   0  0  0  0  0  0  0  0  0  0  0  0
   -8.0140   15.2370   -6.6900 N   0  0  0  0  0  0  0  0  0  0  0  0
   -7.4240   14.8010   -7.4480 H   0  0  0  0  0  0  0  0  0  0  0  0
   -7.4120   15.1550   -5.5630 C   0  0  0  0  0  0  0  0  0  0  0  0
   -6.1960   15.7500   -5.3960 C   0  0  0  0  0  0  0  0  0  0  0  0
   -5.3730   16.6450   -6.6410 Cl  0  0  0  0  0  0  0  0  0  0  0  0
   -5.5440   15.6940   -4.2180 C   0  0  0  0  0  0  0  0  0  0  0  0
   -6.0550   15.0450   -3.1630 C   0  0  0  0  0  0  0  0  0  0  0  0
   -7.2430   14.4540   -3.3150 C   0  0  0  0  0  0  0  0  0  0  0  0
   -7.8990   14.5060   -4.4810 C   0  0  0  0  0  0  0  0  0  0  0  0
   -8.9650   13.8930   -4.3840 O   0  0  0  0  0  0  0  0  0  0  0  0
   -9.0400   13.3120   -3.0830 C   0  0  0  0  0  0  0  0  0  0  0  0
   -7.8610   13.8140   -2.4650 O   0  0  0  0  0  0  0  0  0  0  0  0
  -12.9530   14.2820  -10.8390 O   0  0  0  0  0  0  0  0  0  0  0  0
  -13.1300   15.1900  -11.9000 C   0  0  0  0  0  0  0  0  0  0  0  0
  -14.5960   15.6260  -12.0610 C   0  0  0  0  0  0  0  0  0  0  0  0
  -16.1740   13.4350  -17.0180 C   0  0  0  0  0  0  0  0  0  0  0  0
  -15.6240   13.6750  -15.6950 N   0  0  0  0  0  0  0  0  0  0  0  0
  -14.6970   14.7920  -15.7320 C   0  0  0  0  0  0  0  0  0  0  0  0
  -14.1420   15.1180  -14.3380 C   0  0  0  0  0  0  0  0  0  0  0  0
  -15.1990   15.3940  -13.3690 N   0  0  0  0  0  0  0  0  0  0  0  0
  -16.1030   14.2540  -13.3470 C   0  0  0  0  0  0  0  0  0  0  0  0
  -16.6840   13.9540  -14.7420 C   0  0  0  0  0  0  0  0  0  0  0  0
   -8.8790   13.2280   -8.6570 O   0  0  0  0  0  0  0  0  0  0  0  0
   -9.0490   11.8310   -8.6870 C   0  0  0  0  0  0  0  0  0  0  0  0
   -7.9540   11.1010   -9.4660 C   0  0  0  0  0  0  0  0  0  0  0  0
   -7.9730    9.6050   -9.1690 C   0  0  0  0  0  0  0  0  0  0  0  0
   -7.8470    9.3660   -7.7890 O   0  0  0  0  0  0  0  0  0  0  0  0
   -8.9680    9.8580   -7.1050 C   0  0  0  0  0  0  0  0  0  0  0  0
   -9.0160   11.3780   -7.2180 C   0  0  0  0  0  0  0  0  0  0  0  0
 27 28  1  0
 28 29  1  0
 29 30  1  0
 30 31  1  0
 31 26  1  0
 26 25  1  0
 25 24  1  0
 24  1  1  0
  1  2  2  0
  2  3  1  0
  3  4  2  0
  4  5  1  0
  5 34  1  0
 34 35  1  0
 35 36  1  0
 36 37  1  0
 37 38  1  0
 38 39  1  0
 39 40  1  0
  5  6  2  0
  4  7  1  0
  7 12  1  0
 12 14  1  0
 14 15  2  0
 15 16  1  0
 15 17  1  0
 17 18  2  0
 18 19  1  0
 19 20  2  0
 20 21  1  0
 21 22  1  0
 22 23  1  0
  7  8  1  0
  8  9  2  0
  9 10  1  0
 31 32  1  0
 32 33  1  0
 33 28  1  0
  6  1  1  0
 20 14  1  0
 10  3  1  0
 40 35  1  0
 23 19  1  0
 12 13  1  0
 10 11  1  0
M  END
> <meeko>
{"is_sidechain": false}

> <source_group>
FYN canonical

> <source_system>
FYN_saracatinib

> <source_run>
vina_seed1103_ex32

> <source_seed>
1103

> <vina_pose_rank>
10

> <vina_affinity_kcal_mol>
-8.5549999999999997

> <vina_rmsd_to_crystal_angstrom>
9.6172000000000004

> <minimizedAffinity>
-8.58639

> <CNNscore>
0.1268685609

> <CNNaffinity>
5.8632774353

> <CNN_VS>
0.7438655496

> <CNNaffinity_variance>
1.5846143961

$$$$
