docked_poses
     RDKit          3D

 72 77  0  0  0  0  0  0  0  0999 V2000
   -9.2580   13.6860   -0.3940 C   0  0  0  0  0  0  0  0  0  0  0  0
   -8.4260   14.0270   -1.5350 N   0  0  0  0  0  0  0  0  0  0  0  0
   -9.0240   13.5220   -2.7590 C   0  0  0  0  0  0  0  0  0  0  0  0
   -8.2050   13.9170   -3.9970 C   0  0  0  0  0  0  0  0  0  0  0  0
   -8.0210   15.3610   -4.1040 N   0  0  0  0  0  0  0  0  0  0  0  0
   -7.1810   15.6490   -5.2610 C   0  0  0  0  0  0  0  0  0  0  0  0
   -7.9100   16.1050   -6.5360 C   0  0  0  0  0  0  0  0  0  0  0  0
   -9.2970   16.2430   -6.3420 O   0  0  0  0  0  0  0  0  0  0  0  0
  -10.0830   15.9920   -7.4400 C   0  0  0  0  0  0  0  0  0  0  0  0
  -11.1870   16.6960   -7.7150 C   0  0  0  0  0  0  0  0  0  0  0  0
  -11.9420   16.4260   -8.7890 C   0  0  0  0  0  0  0  0  0  0  0  0
  -11.6440   15.4240   -9.6630 C   0  0  0  0  0  0  0  0  0  0  0  0
  -10.5280   14.6890   -9.4000 C   0  0  0  0  0  0  0  0  0  0  0  0
  -10.1220   13.6600  -10.2300 O   0  0  0  0  0  0  0  0  0  0  0  0
  -10.0310   12.3230   -9.8020 C   0  0  0  0  0  0  0  0  0  0  0  0
  -11.1700   11.9020   -8.8730 C   0  0  0  0  0  0  0  0  0  0  0  0
  -11.2330   10.3840   -8.7330 C   0  0  0  0  0  0  0  0  0  0  0  0
  -11.3630    9.7700   -9.9920 O   0  0  0  0  0  0  0  0  0  0  0  0
  -10.2110    9.9880  -10.7610 C   0  0  0  0  0  0  0  0  0  0  0  0
  -10.0790   11.4730  -11.0820 C   0  0  0  0  0  0  0  0  0  0  0  0
   -9.7950   15.0040   -8.3080 C   0  0  0  0  0  0  0  0  0  0  0  0
  -12.4960   15.2610  -10.7160 C   0  0  0  0  0  0  0  0  0  0  0  0
  -12.5440   14.4450  -11.7040 N   0  0  0  0  0  0  0  0  0  0  0  0
  -13.3950   14.0700  -12.5830 C   0  0  0  0  0  0  0  0  0  0  0  0
  -14.1280   12.9380  -12.3820 C   0  0  0  0  0  0  0  0  0  0  0  0
  -13.9920   11.9300  -10.9690 Cl  0  0  0  0  0  0  0  0  0  0  0  0
  -15.0410   12.5250  -13.2820 C   0  0  0  0  0  0  0  0  0  0  0  0
  -15.2630   13.2000  -14.4180 C   0  0  0  0  0  0  0  0  0  0  0  0
  -14.5480   14.3070  -14.6300 C   0  0  0  0  0  0  0  0  0  0  0  0
  -13.6390   14.7270  -13.7400 C   0  0  0  0  0  0  0  0  0  0  0  0
  -13.1080   15.7620  -14.1480 O   0  0  0  0  0  0  0  0  0  0  0  0
  -13.6260   16.0610  -15.4430 C   0  0  0  0  0  0  0  0  0  0  0  0
  -14.6110   15.0480  -15.6100 O   0  0  0  0  0  0  0  0  0  0  0  0
  -13.4980   16.0480  -10.7940 N   0  0  0  0  0  0  0  0  0  0  0  0
  -13.6860   16.9460   -9.9270 C   0  0  0  0  0  0  0  0  0  0  0  0
  -12.9560   17.1730   -8.9280 N   0  0  0  0  0  0  0  0  0  0  0  0
   -7.4120   15.8340   -2.8700 C   0  0  0  0  0  0  0  0  0  0  0  0
   -8.2560   15.4650   -1.6350 C   0  0  0  0  0  0  0  0  0  0  0  0
   -8.7143   13.9088    0.5359 H   0  0  0  0  0  0  0  0  0  0  0  0
  -10.1855   14.2765   -0.4270 H   0  0  0  0  0  0  0  0  0  0  0  0
   -9.5042   12.6144   -0.4270 H   0  0  0  0  0  0  0  0  0  0  0  0
   -9.0783   12.4248   -2.7028 H   0  0  0  0  0  0  0  0  0  0  0  0
  -10.0273   13.9621   -2.8571 H   0  0  0  0  0  0  0  0  0  0  0  0
   -7.2165   13.4385   -3.9342 H   0  0  0  0  0  0  0  0  0  0  0  0
   -8.7587   13.5823   -4.8866 H   0  0  0  0  0  0  0  0  0  0  0  0
   -6.4774   16.4446   -4.9746 H   0  0  0  0  0  0  0  0  0  0  0  0
   -6.7039   14.6929   -5.5221 H   0  0  0  0  0  0  0  0  0  0  0  0
   -7.4990   17.0760   -6.8495 H   0  0  0  0  0  0  0  0  0  0  0  0
   -7.7545   15.3337   -7.3047 H   0  0  0  0  0  0  0  0  0  0  0  0
  -11.4821   17.5159   -7.0437 H   0  0  0  0  0  0  0  0  0  0  0  0
   -9.1070   12.1888   -9.2204 H   0  0  0  0  0  0  0  0  0  0  0  0
  -11.0074   12.3477   -7.8806 H   0  0  0  0  0  0  0  0  0  0  0  0
  -12.1195   12.2525   -9.3038 H   0  0  0  0  0  0  0  0  0  0  0  0
  -10.3101   10.0278   -8.2519 H   0  0  0  0  0  0  0  0  0  0  0  0
  -12.1095   10.1229   -8.1218 H   0  0  0  0  0  0  0  0  0  0  0  0
   -9.3269    9.6561  -10.1969 H   0  0  0  0  0  0  0  0  0  0  0  0
  -10.2867    9.4185  -11.6990 H   0  0  0  0  0  0  0  0  0  0  0  0
   -9.1530   11.6344  -11.6534 H   0  0  0  0  0  0  0  0  0  0  0  0
  -10.9584   11.7794  -11.6675 H   0  0  0  0  0  0  0  0  0  0  0  0
   -8.8925   14.4059   -8.1137 H   0  0  0  0  0  0  0  0  0  0  0  0
  -11.8862   15.9521  -11.3164 H   0  0  0  0  0  0  0  0  0  0  0  0
  -11.6320   13.9330  -11.8400 H   0  0  0  0  0  0  0  0  0  0  0  0
  -15.6186   11.6110  -13.0794 H   0  0  0  0  0  0  0  0  0  0  0  0
  -16.0079   12.8542  -15.1498 H   0  0  0  0  0  0  0  0  0  0  0  0
  -14.0760   17.0643  -15.4713 H   0  0  0  0  0  0  0  0  0  0  0  0
  -12.8620   16.0708  -16.2343 H   0  0  0  0  0  0  0  0  0  0  0  0
  -14.5690   17.5889  -10.0570 H   0  0  0  0  0  0  0  0  0  0  0  0
  -13.1620   17.8930   -8.2870 H   0  0  0  0  0  0  0  0  0  0  0  0
   -6.4153   15.3798   -2.7683 H   0  0  0  0  0  0  0  0  0  0  0  0
   -7.3444   16.9307   -2.9216 H   0  0  0  0  0  0  0  0  0  0  0  0
   -7.7495   15.8316   -0.7300 H   0  0  0  0  0  0  0  0  0  0  0  0
   -9.2478   15.9301   -1.7352 H   0  0  0  0  0  0  0  0  0  0  0  0
  1  2  1  0
  2  3  1  0
  3  4  1  0
  4  5  1  0
  5  6  1  0
  6  7  1  0
  7  8  1  0
  8  9  1  0
  9 10  2  0
 10 11  1  0
 11 12  2  0
 12 13  1  0
 13 14  1  0
 14 15  1  0
 15 16  1  0
 16 17  1  0
 17 18  1  0
 18 19  1  0
 19 20  1  0
 13 21  2  0
 12 22  1  0
 22 23  1  0
 23 24  1  0
 24 25  2  0
 25 26  1  0
 25 27  1  0
 27 28  2  0
 28 29  1  0
 29 30  2  0
 30 31  1  0
 31 32  1  0
 32 33  1  0
 22 34  1  0
 34 35  2  0
 35 36  1  0
  5 37  1  0
 37 38  1  0
 38  2  1  0
 21  9  1  0
 30 24  1  0
 36 11  1  0
 20 15  1  0
 33 29  1  0
  1 39  1  0
  1 40  1  0
  1 41  1  0
  3 42  1  0
  3 43  1  0
  4 44  1  0
  4 45  1  0
  6 46  1  0
  6 47  1  0
  7 48  1  0
  7 49  1  0
 10 50  1  0
 15 51  1  0
 16 52  1  0
 16 53  1  0
 17 54  1  0
 17 55  1  0
 19 56  1  0
 19 57  1  0
 20 58  1  0
 20 59  1  0
 21 60  1  0
 22 61  1  0
 23 62  1  0
 27 63  1  0
 28 64  1  0
 32 65  1  0
 32 66  1  0
 35 67  1  0
 36 68  1  0
 37 69  1  0
 37 70  1  0
 38 71  1  0
 38 72  1  0
M  END
>  <meeko>  (1) 
{"is_sidechain": [false], "free_energy": -9.182, "intermolecular_energy": -13.476, "internal_energy": -1.748}

$$$$
docked_poses
     RDKit          3D

 72 77  0  0  0  0  0  0  0  0999 V2000
   -9.3880   13.7320   -0.1390 C   0  0  0  0  0  0  0  0  0  0  0  0
   -8.5930   13.8480   -1.3490 N   0  0  0  0  0  0  0  0  0  0  0  0
   -9.3570   13.3900   -2.4960 C   0  0  0  0  0  0  0  0  0  0  0  0
   -8.5720   13.5560   -3.8060 C   0  0  0  0  0  0  0  0  0  0  0  0
   -8.1430   14.9340   -4.0250 N   0  0  0  0  0  0  0  0  0  0  0  0
   -7.3500   14.9960   -5.2480 C   0  0  0  0  0  0  0  0  0  0  0  0
   -7.8550   15.9560   -6.3390 C   0  0  0  0  0  0  0  0  0  0  0  0
   -9.2280   16.2370   -6.2150 O   0  0  0  0  0  0  0  0  0  0  0  0
   -9.9930   15.9860   -7.3280 C   0  0  0  0  0  0  0  0  0  0  0  0
  -11.1120   16.6670   -7.6030 C   0  0  0  0  0  0  0  0  0  0  0  0
  -11.8460   16.3980   -8.6920 C   0  0  0  0  0  0  0  0  0  0  0  0
  -11.5110   15.4210   -9.5810 C   0  0  0  0  0  0  0  0  0  0  0  0
  -10.3790   14.7100   -9.3180 C   0  0  0  0  0  0  0  0  0  0  0  0
   -9.9360   13.7090  -10.1620 O   0  0  0  0  0  0  0  0  0  0  0  0
   -9.8160   12.3670   -9.7580 C   0  0  0  0  0  0  0  0  0  0  0  0
  -10.9300   11.9120   -8.8150 C   0  0  0  0  0  0  0  0  0  0  0  0
  -10.9680   10.3920   -8.7000 C   0  0  0  0  0  0  0  0  0  0  0  0
  -11.1130    9.7970   -9.9670 O   0  0  0  0  0  0  0  0  0  0  0  0
   -9.9800   10.0460  -10.7550 C   0  0  0  0  0  0  0  0  0  0  0  0
   -9.8770   11.5380  -11.0520 C   0  0  0  0  0  0  0  0  0  0  0  0
   -9.6680   15.0230   -8.2100 C   0  0  0  0  0  0  0  0  0  0  0  0
  -12.3440   15.2570  -10.6490 C   0  0  0  0  0  0  0  0  0  0  0  0
  -12.3590   14.4590  -11.6520 N   0  0  0  0  0  0  0  0  0  0  0  0
  -13.2210   13.7830  -12.3140 C   0  0  0  0  0  0  0  0  0  0  0  0
  -13.6640   14.2410  -13.5190 C   0  0  0  0  0  0  0  0  0  0  0  0
  -13.1260   15.7250  -14.2540 Cl  0  0  0  0  0  0  0  0  0  0  0  0
  -14.5610   13.5460  -14.2470 C   0  0  0  0  0  0  0  0  0  0  0  0
  -15.0640   12.3820  -13.8150 C   0  0  0  0  0  0  0  0  0  0  0  0
  -14.6420   11.9250  -12.6330 C   0  0  0  0  0  0  0  0  0  0  0  0
  -13.7500   12.6080  -11.9050 C   0  0  0  0  0  0  0  0  0  0  0  0
  -13.5140   11.9970  -10.8600 O   0  0  0  0  0  0  0  0  0  0  0  0
  -14.3430   10.8360  -10.8140 C   0  0  0  0  0  0  0  0  0  0  0  0
  -14.9930   10.8850  -12.0780 O   0  0  0  0  0  0  0  0  0  0  0  0
  -13.3660   16.0190  -10.7240 N   0  0  0  0  0  0  0  0  0  0  0  0
  -13.5880   16.8940   -9.8430 C   0  0  0  0  0  0  0  0  0  0  0  0
  -12.8780   17.1210   -8.8300 N   0  0  0  0  0  0  0  0  0  0  0  0
   -7.3720   15.3600   -2.8660 C   0  0  0  0  0  0  0  0  0  0  0  0
   -8.1770   15.2230   -1.5600 C   0  0  0  0  0  0  0  0  0  0  0  0
   -8.7338   13.8275    0.7401 H   0  0  0  0  0  0  0  0  0  0  0  0
  -10.1458   14.5291   -0.1204 H   0  0  0  0  0  0  0  0  0  0  0  0
   -9.8865   12.7516   -0.1204 H   0  0  0  0  0  0  0  0  0  0  0  0
   -9.6015   12.3262   -2.3595 H   0  0  0  0  0  0  0  0  0  0  0  0
  -10.2703   13.9993   -2.5645 H   0  0  0  0  0  0  0  0  0  0  0  0
   -7.6822   12.9103   -3.7692 H   0  0  0  0  0  0  0  0  0  0  0  0
   -9.2384   13.2757   -4.6350 H   0  0  0  0  0  0  0  0  0  0  0  0
   -6.3319   15.3079   -4.9720 H   0  0  0  0  0  0  0  0  0  0  0  0
   -7.4125   13.9905   -5.6898 H   0  0  0  0  0  0  0  0  0  0  0  0
   -7.2938   16.8993   -6.2664 H   0  0  0  0  0  0  0  0  0  0  0  0
   -7.7001   15.4675   -7.3123 H   0  0  0  0  0  0  0  0  0  0  0  0
  -11.4367   17.4656   -6.9198 H   0  0  0  0  0  0  0  0  0  0  0  0
   -8.8790   12.2381   -9.1963 H   0  0  0  0  0  0  0  0  0  0  0  0
  -10.7548   12.3430   -7.8183 H   0  0  0  0  0  0  0  0  0  0  0  0
  -11.8927   12.2549   -9.2219 H   0  0  0  0  0  0  0  0  0  0  0  0
  -10.0310   10.0417   -8.2425 H   0  0  0  0  0  0  0  0  0  0  0  0
  -11.8289   10.1076   -8.0771 H   0  0  0  0  0  0  0  0  0  0  0  0
   -9.0798    9.7179  -10.2147 H   0  0  0  0  0  0  0  0  0  0  0  0
  -10.0660    9.4918  -11.7013 H   0  0  0  0  0  0  0  0  0  0  0  0
   -8.9653   11.7236  -11.6388 H   0  0  0  0  0  0  0  0  0  0  0  0
  -10.7727   11.8408  -11.6142 H   0  0  0  0  0  0  0  0  0  0  0  0
   -8.7527   14.4450   -8.0150 H   0  0  0  0  0  0  0  0  0  0  0  0
  -11.7427   15.9734  -11.2280 H   0  0  0  0  0  0  0  0  0  0  0  0
  -11.3960   14.3100  -12.0530 H   0  0  0  0  0  0  0  0  0  0  0  0
  -14.8876   13.9443  -15.2189 H   0  0  0  0  0  0  0  0  0  0  0  0
  -15.7986   11.8223  -14.4126 H   0  0  0  0  0  0  0  0  0  0  0  0
  -13.7426    9.9203  -10.7088 H   0  0  0  0  0  0  0  0  0  0  0  0
  -15.0359   10.8200   -9.9598 H   0  0  0  0  0  0  0  0  0  0  0  0
  -14.4858   17.5162   -9.9727 H   0  0  0  0  0  0  0  0  0  0  0  0
  -13.1100   17.8230   -8.1780 H   0  0  0  0  0  0  0  0  0  0  0  0
   -6.4670   14.7391   -2.7929 H   0  0  0  0  0  0  0  0  0  0  0  0
   -7.1146   16.4212   -2.9986 H   0  0  0  0  0  0  0  0  0  0  0  0
   -7.5496   15.5430   -0.7151 H   0  0  0  0  0  0  0  0  0  0  0  0
   -9.0748   15.8543   -1.6330 H   0  0  0  0  0  0  0  0  0  0  0  0
  1  2  1  0
  2  3  1  0
  3  4  1  0
  4  5  1  0
  5  6  1  0
  6  7  1  0
  7  8  1  0
  8  9  1  0
  9 10  2  0
 10 11  1  0
 11 12  2  0
 12 13  1  0
 13 14  1  0
 14 15  1  0
 15 16  1  0
 16 17  1  0
 17 18  1  0
 18 19  1  0
 19 20  1  0
 13 21  2  0
 12 22  1  0
 22 23  1  0
 23 24  1  0
 24 25  2  0
 25 26  1  0
 25 27  1  0
 27 28  2  0
 28 29  1  0
 29 30  2  0
 30 31  1  0
 31 32  1  0
 32 33  1  0
 22 34  1  0
 34 35  2  0
 35 36  1  0
  5 37  1  0
 37 38  1  0
 38  2  1  0
 21  9  1  0
 30 24  1  0
 36 11  1  0
 20 15  1  0
 33 29  1  0
  1 39  1  0
  1 40  1  0
  1 41  1  0
  3 42  1  0
  3 43  1  0
  4 44  1  0
  4 45  1  0
  6 46  1  0
  6 47  1  0
  7 48  1  0
  7 49  1  0
 10 50  1  0
 15 51  1  0
 16 52  1  0
 16 53  1  0
 17 54  1  0
 17 55  1  0
 19 56  1  0
 19 57  1  0
 20 58  1  0
 20 59  1  0
 21 60  1  0
 22 61  1  0
 23 62  1  0
 27 63  1  0
 28 64  1  0
 32 65  1  0
 32 66  1  0
 35 67  1  0
 36 68  1  0
 37 69  1  0
 37 70  1  0
 38 71  1  0
 38 72  1  0
M  END
>  <meeko>  (2) 
{"is_sidechain": [false], "free_energy": -9.08, "intermolecular_energy": -13.123, "internal_energy": -1.953}

$$$$
docked_poses
     RDKit          3D

 72 77  0  0  0  0  0  0  0  0999 V2000
   -7.2750    9.2890   -7.9170 C   0  0  0  0  0  0  0  0  0  0  0  0
   -7.5670   10.6750   -7.5910 N   0  0  0  0  0  0  0  0  0  0  0  0
   -8.8160   10.7650   -6.8560 C   0  0  0  0  0  0  0  0  0  0  0  0
   -9.1280   12.2090   -6.4370 C   0  0  0  0  0  0  0  0  0  0  0  0
   -8.0540   12.8030   -5.6470 N   0  0  0  0  0  0  0  0  0  0  0  0
   -8.3940   14.1890   -5.3480 C   0  0  0  0  0  0  0  0  0  0  0  0
   -8.3730   15.1670   -6.5350 C   0  0  0  0  0  0  0  0  0  0  0  0
   -9.5410   15.9500   -6.6070 O   0  0  0  0  0  0  0  0  0  0  0  0
  -10.3210   15.7600   -7.7210 C   0  0  0  0  0  0  0  0  0  0  0  0
  -11.3880   16.5200   -7.9940 C   0  0  0  0  0  0  0  0  0  0  0  0
  -12.1390   16.3090   -9.0850 C   0  0  0  0  0  0  0  0  0  0  0  0
  -11.8730   15.3150   -9.9780 C   0  0  0  0  0  0  0  0  0  0  0  0
  -10.7950   14.5240   -9.7180 C   0  0  0  0  0  0  0  0  0  0  0  0
  -10.4230   13.4980  -10.5660 O   0  0  0  0  0  0  0  0  0  0  0  0
  -10.1180   12.2020  -10.1110 C   0  0  0  0  0  0  0  0  0  0  0  0
  -11.3470   11.4010   -9.6820 C   0  0  0  0  0  0  0  0  0  0  0  0
  -11.0190    9.9180   -9.5490 C   0  0  0  0  0  0  0  0  0  0  0  0
  -10.4870    9.4120  -10.7490 O   0  0  0  0  0  0  0  0  0  0  0  0
   -9.2480   10.0080  -11.0220 C   0  0  0  0  0  0  0  0  0  0  0  0
   -9.4390   11.4960  -11.2960 C   0  0  0  0  0  0  0  0  0  0  0  0
  -10.0650   14.7810   -8.6080 C   0  0  0  0  0  0  0  0  0  0  0  0
  -12.7160   15.2150  -11.0460 C   0  0  0  0  0  0  0  0  0  0  0  0
  -12.7860   14.4250  -12.0530 N   0  0  0  0  0  0  0  0  0  0  0  0
  -13.6500   14.0860  -12.9350 C   0  0  0  0  0  0  0  0  0  0  0  0
  -14.4260   12.9820  -12.7380 C   0  0  0  0  0  0  0  0  0  0  0  0
  -14.3290   11.9640  -11.3290 Cl  0  0  0  0  0  0  0  0  0  0  0  0
  -15.3540   12.6080  -13.6400 C   0  0  0  0  0  0  0  0  0  0  0  0
  -15.5510   13.2960  -14.7730 C   0  0  0  0  0  0  0  0  0  0  0  0
  -14.7930   14.3760  -14.9810 C   0  0  0  0  0  0  0  0  0  0  0  0
  -13.8700   14.7570  -14.0890 C   0  0  0  0  0  0  0  0  0  0  0  0
  -13.2990   15.7730  -14.4920 O   0  0  0  0  0  0  0  0  0  0  0  0
  -13.8050   16.0970  -15.7860 C   0  0  0  0  0  0  0  0  0  0  0  0
  -14.8280   15.1230  -15.9570 O   0  0  0  0  0  0  0  0  0  0  0  0
  -13.6800   16.0480  -11.1180 N   0  0  0  0  0  0  0  0  0  0  0  0
  -13.8410   16.9330  -10.2330 C   0  0  0  0  0  0  0  0  0  0  0  0
  -13.1160   17.1040   -9.2190 N   0  0  0  0  0  0  0  0  0  0  0  0
   -6.8200   12.7080   -6.4140 C   0  0  0  0  0  0  0  0  0  0  0  0
   -6.4950   11.2520   -6.8010 C   0  0  0  0  0  0  0  0  0  0  0  0
   -7.1534    8.7117   -6.9886 H   0  0  0  0  0  0  0  0  0  0  0  0
   -8.1042    8.8680   -8.5046 H   0  0  0  0  0  0  0  0  0  0  0  0
   -6.3465    9.2383   -8.5046 H   0  0  0  0  0  0  0  0  0  0  0  0
   -9.6321   10.3951   -7.4941 H   0  0  0  0  0  0  0  0  0  0  0  0
   -8.7208   10.1572   -5.9441 H   0  0  0  0  0  0  0  0  0  0  0  0
   -9.2774   12.8153   -7.3426 H   0  0  0  0  0  0  0  0  0  0  0  0
  -10.0329   12.1890   -5.8119 H   0  0  0  0  0  0  0  0  0  0  0  0
   -9.4080   14.2009   -4.9218 H   0  0  0  0  0  0  0  0  0  0  0  0
   -7.6093   14.5423   -4.6629 H   0  0  0  0  0  0  0  0  0  0  0  0
   -7.5060   15.8353   -6.4266 H   0  0  0  0  0  0  0  0  0  0  0  0
   -8.3110   14.5721   -7.4582 H   0  0  0  0  0  0  0  0  0  0  0  0
  -11.6554   17.3369   -7.3076 H   0  0  0  0  0  0  0  0  0  0  0  0
   -9.4812   12.2703   -9.2167 H   0  0  0  0  0  0  0  0  0  0  0  0
  -11.7008   11.7788   -8.7114 H   0  0  0  0  0  0  0  0  0  0  0  0
  -12.1252   11.5183  -10.4505 H   0  0  0  0  0  0  0  0  0  0  0  0
  -10.2824    9.7829   -8.7433 H   0  0  0  0  0  0  0  0  0  0  0  0
  -11.9458    9.3724   -9.3178 H   0  0  0  0  0  0  0  0  0  0  0  0
   -8.5820    9.8788  -10.1561 H   0  0  0  0  0  0  0  0  0  0  0  0
   -8.8026    9.5302  -11.9071 H   0  0  0  0  0  0  0  0  0  0  0  0
   -8.4556   11.9567  -11.4714 H   0  0  0  0  0  0  0  0  0  0  0  0
  -10.0845   11.6052  -12.1800 H   0  0  0  0  0  0  0  0  0  0  0  0
   -9.1931   14.1386   -8.4155 H   0  0  0  0  0  0  0  0  0  0  0  0
  -12.0669   15.8913  -11.6217 H   0  0  0  0  0  0  0  0  0  0  0  0
  -11.8840   13.9020  -12.2110 H   0  0  0  0  0  0  0  0  0  0  0  0
  -15.9655   11.7154  -13.4415 H   0  0  0  0  0  0  0  0  0  0  0  0
  -16.3096   12.9826  -15.5053 H   0  0  0  0  0  0  0  0  0  0  0  0
  -14.2163   17.1169  -15.8103 H   0  0  0  0  0  0  0  0  0  0  0  0
  -13.0411   16.0809  -16.5773 H   0  0  0  0  0  0  0  0  0  0  0  0
  -14.6928   17.6174  -10.3596 H   0  0  0  0  0  0  0  0  0  0  0  0
  -13.2990   17.8170   -8.5640 H   0  0  0  0  0  0  0  0  0  0  0  0
   -6.9248   13.3051   -7.3319 H   0  0  0  0  0  0  0  0  0  0  0  0
   -5.9988   13.0857   -5.7871 H   0  0  0  0  0  0  0  0  0  0  0  0
   -5.5650   11.2344   -7.3883 H   0  0  0  0  0  0  0  0  0  0  0  0
   -6.3791   10.6610   -5.8805 H   0  0  0  0  0  0  0  0  0  0  0  0
  1  2  1  0
  2  3  1  0
  3  4  1  0
  4  5  1  0
  5  6  1  0
  6  7  1  0
  7  8  1  0
  8  9  1  0
  9 10  2  0
 10 11  1  0
 11 12  2  0
 12 13  1  0
 13 14  1  0
 14 15  1  0
 15 16  1  0
 16 17  1  0
 17 18  1  0
 18 19  1  0
 19 20  1  0
 13 21  2  0
 12 22  1  0
 22 23  1  0
 23 24  1  0
 24 25  2  0
 25 26  1  0
 25 27  1  0
 27 28  2  0
 28 29  1  0
 29 30  2  0
 30 31  1  0
 31 32  1  0
 32 33  1  0
 22 34  1  0
 34 35  2  0
 35 36  1  0
  5 37  1  0
 37 38  1  0
 38  2  1  0
 21  9  1  0
 30 24  1  0
 36 11  1  0
 20 15  1  0
 33 29  1  0
  1 39  1  0
  1 40  1  0
  1 41  1  0
  3 42  1  0
  3 43  1  0
  4 44  1  0
  4 45  1  0
  6 46  1  0
  6 47  1  0
  7 48  1  0
  7 49  1  0
 10 50  1  0
 15 51  1  0
 16 52  1  0
 16 53  1  0
 17 54  1  0
 17 55  1  0
 19 56  1  0
 19 57  1  0
 20 58  1  0
 20 59  1  0
 21 60  1  0
 22 61  1  0
 23 62  1  0
 27 63  1  0
 28 64  1  0
 32 65  1  0
 32 66  1  0
 35 67  1  0
 36 68  1  0
 37 69  1  0
 37 70  1  0
 38 71  1  0
 38 72  1  0
M  END
>  <meeko>  (3) 
{"is_sidechain": [false], "free_energy": -8.936, "intermolecular_energy": -12.726, "internal_energy": -2.138}

$$$$
docked_poses
     RDKit          3D

 72 77  0  0  0  0  0  0  0  0999 V2000
   -8.2810   18.7370   -4.2520 C   0  0  0  0  0  0  0  0  0  0  0  0
   -7.8190   17.3980   -4.5780 N   0  0  0  0  0  0  0  0  0  0  0  0
   -8.5770   16.4110   -3.8290 C   0  0  0  0  0  0  0  0  0  0  0  0
   -8.1610   14.9780   -4.1940 C   0  0  0  0  0  0  0  0  0  0  0  0
   -8.2890   14.7090   -5.6230 N   0  0  0  0  0  0  0  0  0  0  0  0
   -7.8130   13.3580   -5.8970 C   0  0  0  0  0  0  0  0  0  0  0  0
   -8.8340   12.3880   -6.5170 C   0  0  0  0  0  0  0  0  0  0  0  0
  -10.1510   12.8800   -6.4490 O   0  0  0  0  0  0  0  0  0  0  0  0
  -10.7120   13.2550   -7.6450 C   0  0  0  0  0  0  0  0  0  0  0  0
  -11.2020   14.4820   -7.8600 C   0  0  0  0  0  0  0  0  0  0  0  0
  -11.7520   14.8220   -9.0350 C   0  0  0  0  0  0  0  0  0  0  0  0
  -11.8530   13.9510  -10.0770 C   0  0  0  0  0  0  0  0  0  0  0  0
  -11.3670   12.6940   -9.8800 C   0  0  0  0  0  0  0  0  0  0  0  0
  -11.4010   11.7360  -10.8760 O   0  0  0  0  0  0  0  0  0  0  0  0
  -10.8630   10.4460  -10.7140 C   0  0  0  0  0  0  0  0  0  0  0  0
  -11.9050    9.3320  -10.8270 C   0  0  0  0  0  0  0  0  0  0  0  0
  -11.2390    7.9720  -11.0090 C   0  0  0  0  0  0  0  0  0  0  0  0
  -10.3890    7.9760  -12.1300 O   0  0  0  0  0  0  0  0  0  0  0  0
   -9.3140    8.8510  -11.9230 C   0  0  0  0  0  0  0  0  0  0  0  0
   -9.8250   10.2850  -11.8370 C   0  0  0  0  0  0  0  0  0  0  0  0
  -10.8150   12.4010   -8.6800 C   0  0  0  0  0  0  0  0  0  0  0  0
  -12.4310   14.4300  -11.2170 C   0  0  0  0  0  0  0  0  0  0  0  0
  -12.6990   13.9180  -12.3610 N   0  0  0  0  0  0  0  0  0  0  0  0
  -13.6980   13.8490  -13.1590 C   0  0  0  0  0  0  0  0  0  0  0  0
  -14.6540   12.8960  -12.9690 C   0  0  0  0  0  0  0  0  0  0  0  0
  -14.6220   11.7280  -11.6790 Cl  0  0  0  0  0  0  0  0  0  0  0  0
  -15.7250   12.8060  -13.7830 C   0  0  0  0  0  0  0  0  0  0  0  0
  -15.8930   13.6400  -14.8180 C   0  0  0  0  0  0  0  0  0  0  0  0
  -14.9590   14.5740  -15.0180 C   0  0  0  0  0  0  0  0  0  0  0  0
  -13.8930   14.6730  -14.2130 C   0  0  0  0  0  0  0  0  0  0  0  0
  -13.1750   15.6010  -14.5900 O   0  0  0  0  0  0  0  0  0  0  0  0
  -13.7330   16.1570  -15.7790 C   0  0  0  0  0  0  0  0  0  0  0  0
  -14.9420   15.4190  -15.9130 O   0  0  0  0  0  0  0  0  0  0  0  0
  -12.8330   15.6410  -11.2110 N   0  0  0  0  0  0  0  0  0  0  0  0
  -12.6940   16.3660  -10.1880 C   0  0  0  0  0  0  0  0  0  0  0  0
  -12.1730   16.0150   -9.0990 N   0  0  0  0  0  0  0  0  0  0  0  0
   -7.5120   15.7070   -6.3440 C   0  0  0  0  0  0  0  0  0  0  0  0
   -7.9570   17.1410   -6.0000 C   0  0  0  0  0  0  0  0  0  0  0  0
   -8.3217   18.8549   -3.1591 H   0  0  0  0  0  0  0  0  0  0  0  0
   -7.5865   19.4777   -4.6751 H   0  0  0  0  0  0  0  0  0  0  0  0
   -9.2845   18.8918   -4.6751 H   0  0  0  0  0  0  0  0  0  0  0  0
   -8.4043   16.5695   -2.7543 H   0  0  0  0  0  0  0  0  0  0  0  0
   -9.6410   16.5334   -4.0797 H   0  0  0  0  0  0  0  0  0  0  0  0
   -7.1119   14.8285   -3.8989 H   0  0  0  0  0  0  0  0  0  0  0  0
   -8.8315   14.2878   -3.6611 H   0  0  0  0  0  0  0  0  0  0  0  0
   -6.9620   13.4365   -6.5896 H   0  0  0  0  0  0  0  0  0  0  0  0
   -7.5615   12.9309   -4.9150 H   0  0  0  0  0  0  0  0  0  0  0  0
   -8.5714   12.2260   -7.5729 H   0  0  0  0  0  0  0  0  0  0  0  0
   -8.7963   11.4498   -5.9439 H   0  0  0  0  0  0  0  0  0  0  0  0
  -11.1524   15.2290   -7.0540 H   0  0  0  0  0  0  0  0  0  0  0  0
  -10.4363   10.3540   -9.7043 H   0  0  0  0  0  0  0  0  0  0  0  0
  -12.5126    9.3144   -9.9102 H   0  0  0  0  0  0  0  0  0  0  0  0
  -12.5357    9.5320  -11.7058 H   0  0  0  0  0  0  0  0  0  0  0  0
  -10.6495    7.7364  -10.1107 H   0  0  0  0  0  0  0  0  0  0  0  0
  -12.0218    7.2149  -11.1638 H   0  0  0  0  0  0  0  0  0  0  0  0
   -8.8044    8.5879  -10.9843 H   0  0  0  0  0  0  0  0  0  0  0  0
   -8.6094    8.7661  -12.7634 H   0  0  0  0  0  0  0  0  0  0  0  0
   -8.9762   10.9558  -11.6382 H   0  0  0  0  0  0  0  0  0  0  0  0
  -10.3078   10.5377  -12.7926 H   0  0  0  0  0  0  0  0  0  0  0  0
  -10.4191   11.3844   -8.5392 H   0  0  0  0  0  0  0  0  0  0  0  0
  -11.4429   14.7406  -11.5875 H   0  0  0  0  0  0  0  0  0  0  0  0
  -11.8720   13.4100  -12.7720 H   0  0  0  0  0  0  0  0  0  0  0  0
  -16.4796   12.0286  -13.5926 H   0  0  0  0  0  0  0  0  0  0  0  0
  -16.7683   13.5586  -15.4792 H   0  0  0  0  0  0  0  0  0  0  0  0
  -13.9324   17.2324  -15.6617 H   0  0  0  0  0  0  0  0  0  0  0  0
  -13.0710   16.0855  -16.6546 H   0  0  0  0  0  0  0  0  0  0  0  0
  -13.0625   17.4003  -10.2550 H   0  0  0  0  0  0  0  0  0  0  0  0
  -12.0960   16.6350   -8.3360 H   0  0  0  0  0  0  0  0  0  0  0  0
   -6.4508   15.5909   -6.0789 H   0  0  0  0  0  0  0  0  0  0  0  0
   -7.6716   15.5500   -7.4210 H   0  0  0  0  0  0  0  0  0  0  0  0
   -7.3333   17.8553   -6.5575 H   0  0  0  0  0  0  0  0  0  0  0  0
   -9.0150   17.2573   -6.2776 H   0  0  0  0  0  0  0  0  0  0  0  0
  1  2  1  0
  2  3  1  0
  3  4  1  0
  4  5  1  0
  5  6  1  0
  6  7  1  0
  7  8  1  0
  8  9  1  0
  9 10  2  0
 10 11  1  0
 11 12  2  0
 12 13  1  0
 13 14  1  0
 14 15  1  0
 15 16  1  0
 16 17  1  0
 17 18  1  0
 18 19  1  0
 19 20  1  0
 13 21  2  0
 12 22  1  0
 22 23  1  0
 23 24  1  0
 24 25  2  0
 25 26  1  0
 25 27  1  0
 27 28  2  0
 28 29  1  0
 29 30  2  0
 30 31  1  0
 31 32  1  0
 32 33  1  0
 22 34  1  0
 34 35  2  0
 35 36  1  0
  5 37  1  0
 37 38  1  0
 38  2  1  0
 21  9  1  0
 30 24  1  0
 36 11  1  0
 20 15  1  0
 33 29  1  0
  1 39  1  0
  1 40  1  0
  1 41  1  0
  3 42  1  0
  3 43  1  0
  4 44  1  0
  4 45  1  0
  6 46  1  0
  6 47  1  0
  7 48  1  0
  7 49  1  0
 10 50  1  0
 15 51  1  0
 16 52  1  0
 16 53  1  0
 17 54  1  0
 17 55  1  0
 19 56  1  0
 19 57  1  0
 20 58  1  0
 20 59  1  0
 21 60  1  0
 22 61  1  0
 23 62  1  0
 27 63  1  0
 28 64  1  0
 32 65  1  0
 32 66  1  0
 35 67  1  0
 36 68  1  0
 37 69  1  0
 37 70  1  0
 38 71  1  0
 38 72  1  0
M  END
>  <meeko>  (4) 
{"is_sidechain": [false], "free_energy": -8.882, "intermolecular_energy": -12.889, "internal_energy": -1.895}

$$$$
docked_poses
     RDKit          3D

 72 77  0  0  0  0  0  0  0  0999 V2000
   -8.3080   15.9820   -1.1590 C   0  0  0  0  0  0  0  0  0  0  0  0
   -8.0680   16.0540   -2.5900 N   0  0  0  0  0  0  0  0  0  0  0  0
   -8.3580   14.7740   -3.2120 C   0  0  0  0  0  0  0  0  0  0  0  0
   -8.1770   14.8280   -4.7360 C   0  0  0  0  0  0  0  0  0  0  0  0
   -8.9930   15.8670   -5.3560 N   0  0  0  0  0  0  0  0  0  0  0  0
   -8.7150   15.8990   -6.7880 C   0  0  0  0  0  0  0  0  0  0  0  0
   -9.8120   15.3380   -7.7080 C   0  0  0  0  0  0  0  0  0  0  0  0
  -10.8960   16.2240   -7.8530 O   0  0  0  0  0  0  0  0  0  0  0  0
  -11.7380   15.9710   -8.9080 C   0  0  0  0  0  0  0  0  0  0  0  0
  -12.7910   16.7460   -9.1940 C   0  0  0  0  0  0  0  0  0  0  0  0
  -13.6030   16.4720  -10.2250 C   0  0  0  0  0  0  0  0  0  0  0  0
  -13.4190   15.3960  -11.0400 C   0  0  0  0  0  0  0  0  0  0  0  0
  -12.3580   14.5880  -10.7630 C   0  0  0  0  0  0  0  0  0  0  0  0
  -12.0670   13.4790  -11.5360 O   0  0  0  0  0  0  0  0  0  0  0  0
  -12.1310   12.1640  -11.0400 C   0  0  0  0  0  0  0  0  0  0  0  0
  -13.5570   11.6260  -10.9210 C   0  0  0  0  0  0  0  0  0  0  0  0
  -13.5610   10.1120  -10.7350 C   0  0  0  0  0  0  0  0  0  0  0  0
  -12.8730    9.4770  -11.7850 O   0  0  0  0  0  0  0  0  0  0  0  0
  -11.5130    9.8160  -11.7530 C   0  0  0  0  0  0  0  0  0  0  0  0
  -11.3460   11.3040  -12.0430 C   0  0  0  0  0  0  0  0  0  0  0  0
  -11.5630   14.9090   -9.7170 C   0  0  0  0  0  0  0  0  0  0  0  0
  -14.3180   15.2390  -12.0540 C   0  0  0  0  0  0  0  0  0  0  0  0
  -14.4680   14.3690  -12.9830 N   0  0  0  0  0  0  0  0  0  0  0  0
  -14.7900   14.3500  -14.2220 C   0  0  0  0  0  0  0  0  0  0  0  0
  -14.0060   14.9870  -15.1380 C   0  0  0  0  0  0  0  0  0  0  0  0
  -12.5490   15.8510  -14.7380 Cl  0  0  0  0  0  0  0  0  0  0  0  0
  -14.3100   14.9740  -16.4510 C   0  0  0  0  0  0  0  0  0  0  0  0
  -15.3990   14.3450  -16.9140 C   0  0  0  0  0  0  0  0  0  0  0  0
  -16.1780   13.7220  -16.0250 C   0  0  0  0  0  0  0  0  0  0  0  0
  -15.8830   13.7280  -14.7190 C   0  0  0  0  0  0  0  0  0  0  0  0
  -16.7380   13.0930  -14.0990 O   0  0  0  0  0  0  0  0  0  0  0  0
  -17.7430   12.6650  -15.0160 C   0  0  0  0  0  0  0  0  0  0  0  0
  -17.2130   13.1000  -16.2630 O   0  0  0  0  0  0  0  0  0  0  0  0
  -15.2550   16.1010  -12.1520 N   0  0  0  0  0  0  0  0  0  0  0  0
  -15.3390   17.0640  -11.3410 C   0  0  0  0  0  0  0  0  0  0  0  0
  -14.5570   17.2920  -10.3810 N   0  0  0  0  0  0  0  0  0  0  0  0
   -8.6710   17.1370   -4.7200 C   0  0  0  0  0  0  0  0  0  0  0  0
   -8.8890   17.0860   -3.1960 C   0  0  0  0  0  0  0  0  0  0  0  0
   -7.3901   16.2574   -0.6190 H   0  0  0  0  0  0  0  0  0  0  0  0
   -9.1159   16.6773   -0.8873 H   0  0  0  0  0  0  0  0  0  0  0  0
   -8.5997   14.9568   -0.8873 H   0  0  0  0  0  0  0  0  0  0  0  0
   -7.6774   14.0149   -2.7990 H   0  0  0  0  0  0  0  0  0  0  0  0
   -9.4072   14.5203   -3.0005 H   0  0  0  0  0  0  0  0  0  0  0  0
   -7.1189   15.0294   -4.9593 H   0  0  0  0  0  0  0  0  0  0  0  0
   -8.4980   13.8593   -5.1467 H   0  0  0  0  0  0  0  0  0  0  0  0
   -8.5429   16.9475   -7.0726 H   0  0  0  0  0  0  0  0  0  0  0  0
   -7.8459   15.2404   -6.9327 H   0  0  0  0  0  0  0  0  0  0  0  0
   -9.3772   15.1466   -8.7001 H   0  0  0  0  0  0  0  0  0  0  0  0
  -10.1935   14.4136   -7.2498 H   0  0  0  0  0  0  0  0  0  0  0  0
  -12.9949   17.6279   -8.5689 H   0  0  0  0  0  0  0  0  0  0  0  0
  -11.7173   12.1385  -10.0211 H   0  0  0  0  0  0  0  0  0  0  0  0
  -14.0466   12.0953  -10.0549 H   0  0  0  0  0  0  0  0  0  0  0  0
  -14.0981   11.8647  -11.8485 H   0  0  0  0  0  0  0  0  0  0  0  0
  -13.0713    9.8647   -9.7816 H   0  0  0  0  0  0  0  0  0  0  0  0
  -14.6032    9.7601  -10.7332 H   0  0  0  0  0  0  0  0  0  0  0  0
  -11.1032    9.5894  -10.7576 H   0  0  0  0  0  0  0  0  0  0  0  0
  -10.9750    9.2341  -12.5158 H   0  0  0  0  0  0  0  0  0  0  0  0
  -10.2790   11.5634  -11.9782 H   0  0  0  0  0  0  0  0  0  0  0  0
  -11.7370   11.5055  -13.0512 H   0  0  0  0  0  0  0  0  0  0  0  0
  -10.7061   14.2507   -9.5110 H   0  0  0  0  0  0  0  0  0  0  0  0
  -13.6745   15.8360  -12.7170 H   0  0  0  0  0  0  0  0  0  0  0  0
  -14.2750   13.3900  -12.6450 H   0  0  0  0  0  0  0  0  0  0  0  0
  -13.6479   15.4925  -17.1601 H   0  0  0  0  0  0  0  0  0  0  0  0
  -15.6426   14.3417  -17.9867 H   0  0  0  0  0  0  0  0  0  0  0  0
  -17.8649   11.5720  -14.9934 H   0  0  0  0  0  0  0  0  0  0  0  0
  -18.7432   13.0665  -14.7958 H   0  0  0  0  0  0  0  0  0  0  0  0
  -16.1713   17.7685  -11.4860 H   0  0  0  0  0  0  0  0  0  0  0  0
  -14.6810   18.0650   -9.7840 H   0  0  0  0  0  0  0  0  0  0  0  0
   -7.6168   17.3784   -4.9208 H   0  0  0  0  0  0  0  0  0  0  0  0
   -9.3391   17.9060   -5.1351 H   0  0  0  0  0  0  0  0  0  0  0  0
   -8.6219   18.0604   -2.7611 H   0  0  0  0  0  0  0  0  0  0  0  0
   -9.9463   16.8547   -2.9996 H   0  0  0  0  0  0  0  0  0  0  0  0
  1  2  1  0
  2  3  1  0
  3  4  1  0
  4  5  1  0
  5  6  1  0
  6  7  1  0
  7  8  1  0
  8  9  1  0
  9 10  2  0
 10 11  1  0
 11 12  2  0
 12 13  1  0
 13 14  1  0
 14 15  1  0
 15 16  1  0
 16 17  1  0
 17 18  1  0
 18 19  1  0
 19 20  1  0
 13 21  2  0
 12 22  1  0
 22 23  1  0
 23 24  1  0
 24 25  2  0
 25 26  1  0
 25 27  1  0
 27 28  2  0
 28 29  1  0
 29 30  2  0
 30 31  1  0
 31 32  1  0
 32 33  1  0
 22 34  1  0
 34 35  2  0
 35 36  1  0
  5 37  1  0
 37 38  1  0
 38  2  1  0
 21  9  1  0
 30 24  1  0
 36 11  1  0
 20 15  1  0
 33 29  1  0
  1 39  1  0
  1 40  1  0
  1 41  1  0
  3 42  1  0
  3 43  1  0
  4 44  1  0
  4 45  1  0
  6 46  1  0
  6 47  1  0
  7 48  1  0
  7 49  1  0
 10 50  1  0
 15 51  1  0
 16 52  1  0
 16 53  1  0
 17 54  1  0
 17 55  1  0
 19 56  1  0
 19 57  1  0
 20 58  1  0
 20 59  1  0
 21 60  1  0
 22 61  1  0
 23 62  1  0
 27 63  1  0
 28 64  1  0
 32 65  1  0
 32 66  1  0
 35 67  1  0
 36 68  1  0
 37 69  1  0
 37 70  1  0
 38 71  1  0
 38 72  1  0
M  END
>  <meeko>  (5) 
{"is_sidechain": [false], "free_energy": -8.871, "intermolecular_energy": -13.152, "internal_energy": -1.615}

$$$$
docked_poses
     RDKit          3D

 72 77  0  0  0  0  0  0  0  0999 V2000
   -6.9680   22.6060   -4.1250 C   0  0  0  0  0  0  0  0  0  0  0  0
   -7.4080   21.2820   -4.5300 N   0  0  0  0  0  0  0  0  0  0  0  0
   -6.3430   20.5940   -5.2380 C   0  0  0  0  0  0  0  0  0  0  0  0
   -6.7480   19.1650   -5.6280 C   0  0  0  0  0  0  0  0  0  0  0  0
   -7.1590   18.3700   -4.4750 N   0  0  0  0  0  0  0  0  0  0  0  0
   -7.5910   17.0550   -4.9350 C   0  0  0  0  0  0  0  0  0  0  0  0
   -8.6830   17.0360   -6.0180 C   0  0  0  0  0  0  0  0  0  0  0  0
   -9.1430   15.7350   -6.2950 O   0  0  0  0  0  0  0  0  0  0  0  0
   -9.9420   15.6070   -7.4040 C   0  0  0  0  0  0  0  0  0  0  0  0
  -10.9970   16.3980   -7.6300 C   0  0  0  0  0  0  0  0  0  0  0  0
  -11.7670   16.2470   -8.7180 C   0  0  0  0  0  0  0  0  0  0  0  0
  -11.5350   15.2850   -9.6540 C   0  0  0  0  0  0  0  0  0  0  0  0
  -10.4700   14.4620   -9.4410 C   0  0  0  0  0  0  0  0  0  0  0  0
  -10.1320   13.4640  -10.3360 O   0  0  0  0  0  0  0  0  0  0  0  0
  -10.0100   12.1130   -9.9630 C   0  0  0  0  0  0  0  0  0  0  0  0
  -11.0070   11.6850   -8.8840 C   0  0  0  0  0  0  0  0  0  0  0  0
  -11.0840   10.1660   -8.7780 C   0  0  0  0  0  0  0  0  0  0  0  0
  -11.4160    9.5930  -10.0190 O   0  0  0  0  0  0  0  0  0  0  0  0
  -10.3880    9.8120  -10.9470 C   0  0  0  0  0  0  0  0  0  0  0  0
  -10.2700   11.3040  -11.2440 C   0  0  0  0  0  0  0  0  0  0  0  0
   -9.7190   14.6580   -8.3330 C   0  0  0  0  0  0  0  0  0  0  0  0
  -12.3940   15.2460  -10.7130 C   0  0  0  0  0  0  0  0  0  0  0  0
  -12.4950   14.4990  -11.7500 N   0  0  0  0  0  0  0  0  0  0  0  0
  -13.4060   14.1390  -12.5740 C   0  0  0  0  0  0  0  0  0  0  0  0
  -14.1530   13.0270  -12.3190 C   0  0  0  0  0  0  0  0  0  0  0  0
  -13.9580   12.0260  -10.9080 Cl  0  0  0  0  0  0  0  0  0  0  0  0
  -15.1280   12.6300  -13.1600 C   0  0  0  0  0  0  0  0  0  0  0  0
  -15.4010   13.3020  -14.2870 C   0  0  0  0  0  0  0  0  0  0  0  0
  -14.6730   14.3900  -14.5500 C   0  0  0  0  0  0  0  0  0  0  0  0
  -13.7030   14.7930  -13.7200 C   0  0  0  0  0  0  0  0  0  0  0  0
  -13.1720   15.8120  -14.1670 O   0  0  0  0  0  0  0  0  0  0  0  0
  -13.7590   16.1140  -15.4320 C   0  0  0  0  0  0  0  0  0  0  0  0
  -14.7770   15.1250  -15.5310 O   0  0  0  0  0  0  0  0  0  0  0  0
  -13.3420   16.1020  -10.7370 N   0  0  0  0  0  0  0  0  0  0  0  0
  -13.4710   16.9530   -9.8150 C   0  0  0  0  0  0  0  0  0  0  0  0
  -12.7290   17.0680   -8.8050 N   0  0  0  0  0  0  0  0  0  0  0  0
   -8.2330   19.0790   -3.7940 C   0  0  0  0  0  0  0  0  0  0  0  0
   -7.8080   20.4990   -3.3750 C   0  0  0  0  0  0  0  0  0  0  0  0
   -6.9481   22.6658   -3.0268 H   0  0  0  0  0  0  0  0  0  0  0  0
   -5.9590   22.7941   -4.5208 H   0  0  0  0  0  0  0  0  0  0  0  0
   -7.6637   23.3606   -4.5208 H   0  0  0  0  0  0  0  0  0  0  0  0
   -6.1007   21.1572   -6.1513 H   0  0  0  0  0  0  0  0  0  0  0  0
   -5.4720   20.5321   -4.5690 H   0  0  0  0  0  0  0  0  0  0  0  0
   -7.5861   19.2166   -6.3386 H   0  0  0  0  0  0  0  0  0  0  0  0
   -5.8697   18.6775   -6.0762 H   0  0  0  0  0  0  0  0  0  0  0  0
   -6.7097   16.5351   -5.3387 H   0  0  0  0  0  0  0  0  0  0  0  0
   -8.0415   16.5706   -4.0561 H   0  0  0  0  0  0  0  0  0  0  0  0
   -9.5321   17.6449   -5.6739 H   0  0  0  0  0  0  0  0  0  0  0  0
   -8.2448   17.4401   -6.9425 H   0  0  0  0  0  0  0  0  0  0  0  0
  -11.2387   17.1908   -6.9067 H   0  0  0  0  0  0  0  0  0  0  0  0
   -9.0128   11.9434   -9.5308 H   0  0  0  0  0  0  0  0  0  0  0  0
  -10.6868   12.0968   -7.9155 H   0  0  0  0  0  0  0  0  0  0  0  0
  -12.0019   12.0667   -9.1570 H   0  0  0  0  0  0  0  0  0  0  0  0
  -10.1080    9.7777   -8.4515 H   0  0  0  0  0  0  0  0  0  0  0  0
  -11.8649    9.9034   -8.0492 H   0  0  0  0  0  0  0  0  0  0  0  0
   -9.4373    9.4458  -10.5322 H   0  0  0  0  0  0  0  0  0  0  0  0
  -10.6178    9.2731  -11.8780 H   0  0  0  0  0  0  0  0  0  0  0  0
   -9.4367   11.4646  -11.9438 H   0  0  0  0  0  0  0  0  0  0  0  0
  -11.2195   11.6456  -11.6819 H   0  0  0  0  0  0  0  0  0  0  0  0
   -8.8589   13.9899   -8.1789 H   0  0  0  0  0  0  0  0  0  0  0  0
  -11.7381   15.9310  -11.2703 H   0  0  0  0  0  0  0  0  0  0  0  0
  -11.5770   14.0500  -12.0060 H   0  0  0  0  0  0  0  0  0  0  0  0
  -15.7145   11.7321  -12.9155 H   0  0  0  0  0  0  0  0  0  0  0  0
  -16.1960   12.9693  -14.9706 H   0  0  0  0  0  0  0  0  0  0  0  0
  -14.1850   17.1281  -15.4428 H   0  0  0  0  0  0  0  0  0  0  0  0
  -13.0435   16.0983  -16.2674 H   0  0  0  0  0  0  0  0  0  0  0  0
  -14.3094   17.6598   -9.9017 H   0  0  0  0  0  0  0  0  0  0  0  0
  -12.8870   17.7570   -8.1200 H   0  0  0  0  0  0  0  0  0  0  0  0
   -9.0968   19.1515   -4.4712 H   0  0  0  0  0  0  0  0  0  0  0  0
   -8.4892   18.5171   -2.8837 H   0  0  0  0  0  0  0  0  0  0  0  0
   -8.6541   20.9963   -2.8783 H   0  0  0  0  0  0  0  0  0  0  0  0
   -6.9514   20.4215   -2.6892 H   0  0  0  0  0  0  0  0  0  0  0  0
  1  2  1  0
  2  3  1  0
  3  4  1  0
  4  5  1  0
  5  6  1  0
  6  7  1  0
  7  8  1  0
  8  9  1  0
  9 10  2  0
 10 11  1  0
 11 12  2  0
 12 13  1  0
 13 14  1  0
 14 15  1  0
 15 16  1  0
 16 17  1  0
 17 18  1  0
 18 19  1  0
 19 20  1  0
 13 21  2  0
 12 22  1  0
 22 23  1  0
 23 24  1  0
 24 25  2  0
 25 26  1  0
 25 27  1  0
 27 28  2  0
 28 29  1  0
 29 30  2  0
 30 31  1  0
 31 32  1  0
 32 33  1  0
 22 34  1  0
 34 35  2  0
 35 36  1  0
  5 37  1  0
 37 38  1  0
 38  2  1  0
 21  9  1  0
 30 24  1  0
 36 11  1  0
 20 15  1  0
 33 29  1  0
  1 39  1  0
  1 40  1  0
  1 41  1  0
  3 42  1  0
  3 43  1  0
  4 44  1  0
  4 45  1  0
  6 46  1  0
  6 47  1  0
  7 48  1  0
  7 49  1  0
 10 50  1  0
 15 51  1  0
 16 52  1  0
 16 53  1  0
 17 54  1  0
 17 55  1  0
 19 56  1  0
 19 57  1  0
 20 58  1  0
 20 59  1  0
 21 60  1  0
 22 61  1  0
 23 62  1  0
 27 63  1  0
 28 64  1  0
 32 65  1  0
 32 66  1  0
 35 67  1  0
 36 68  1  0
 37 69  1  0
 37 70  1  0
 38 71  1  0
 38 72  1  0
M  END
>  <meeko>  (6) 
{"is_sidechain": [false], "free_energy": -8.797, "intermolecular_energy": -13.085, "internal_energy": -1.575}

$$$$
docked_poses
     RDKit          3D

 72 77  0  0  0  0  0  0  0  0999 V2000
   -8.2050   15.5080   -0.9990 C   0  0  0  0  0  0  0  0  0  0  0  0
   -8.4590   14.9750   -2.3270 N   0  0  0  0  0  0  0  0  0  0  0  0
   -8.2900   16.0160   -3.3260 C   0  0  0  0  0  0  0  0  0  0  0  0
   -8.4870   15.4760   -4.7490 C   0  0  0  0  0  0  0  0  0  0  0  0
   -7.5930   14.3620   -5.0500 N   0  0  0  0  0  0  0  0  0  0  0  0
   -7.8880   13.8630   -6.3890 C   0  0  0  0  0  0  0  0  0  0  0  0
   -8.7730   12.6080   -6.4700 C   0  0  0  0  0  0  0  0  0  0  0  0
  -10.1460   12.9150   -6.4230 O   0  0  0  0  0  0  0  0  0  0  0  0
  -10.7150   13.2970   -7.6130 C   0  0  0  0  0  0  0  0  0  0  0  0
  -11.2450   14.5100   -7.8030 C   0  0  0  0  0  0  0  0  0  0  0  0
  -11.8020   14.8560   -8.9730 C   0  0  0  0  0  0  0  0  0  0  0  0
  -11.8700   14.0050  -10.0350 C   0  0  0  0  0  0  0  0  0  0  0  0
  -11.3420   12.7620   -9.8620 C   0  0  0  0  0  0  0  0  0  0  0  0
  -11.3390   11.8250  -10.8790 O   0  0  0  0  0  0  0  0  0  0  0  0
  -10.8190   10.5270  -10.7210 C   0  0  0  0  0  0  0  0  0  0  0  0
  -11.8940    9.4420  -10.6550 C   0  0  0  0  0  0  0  0  0  0  0  0
  -11.2900    8.0560  -10.8500 C   0  0  0  0  0  0  0  0  0  0  0  0
  -10.5820    7.9840  -12.0630 O   0  0  0  0  0  0  0  0  0  0  0  0
   -9.4670    8.8340  -12.0290 C   0  0  0  0  0  0  0  0  0  0  0  0
   -9.9280   10.2850  -11.9510 C   0  0  0  0  0  0  0  0  0  0  0  0
  -10.7850   12.4620   -8.6670 C   0  0  0  0  0  0  0  0  0  0  0  0
  -12.4590   14.4890  -11.1660 C   0  0  0  0  0  0  0  0  0  0  0  0
  -12.7050   13.9930  -12.3230 N   0  0  0  0  0  0  0  0  0  0  0  0
  -13.6980   13.9070  -13.1260 C   0  0  0  0  0  0  0  0  0  0  0  0
  -14.6510   12.9520  -12.9290 C   0  0  0  0  0  0  0  0  0  0  0  0
  -14.6220   11.8040  -11.6220 Cl  0  0  0  0  0  0  0  0  0  0  0  0
  -15.7160   12.8450  -13.7490 C   0  0  0  0  0  0  0  0  0  0  0  0
  -15.8800   13.6630  -14.7970 C   0  0  0  0  0  0  0  0  0  0  0  0
  -14.9500   14.5990  -15.0040 C   0  0  0  0  0  0  0  0  0  0  0  0
  -13.8900   14.7150  -14.1940 C   0  0  0  0  0  0  0  0  0  0  0  0
  -13.1740   15.6410  -14.5790 O   0  0  0  0  0  0  0  0  0  0  0  0
  -13.7270   16.1760  -15.7800 C   0  0  0  0  0  0  0  0  0  0  0  0
  -14.9320   15.4300  -15.9110 O   0  0  0  0  0  0  0  0  0  0  0  0
  -12.9020   15.6860  -11.1370 N   0  0  0  0  0  0  0  0  0  0  0  0
  -12.7920   16.3930  -10.0980 C   0  0  0  0  0  0  0  0  0  0  0  0
  -12.2630   16.0360   -9.0140 N   0  0  0  0  0  0  0  0  0  0  0  0
   -7.7930   13.3330   -4.0400 C   0  0  0  0  0  0  0  0  0  0  0  0
   -7.5600   13.8730   -2.6160 C   0  0  0  0  0  0  0  0  0  0  0  0
   -8.5486   14.7870   -0.2426 H   0  0  0  0  0  0  0  0  0  0  0  0
   -7.1263   15.6838   -0.8746 H   0  0  0  0  0  0  0  0  0  0  0  0
   -8.7479   16.4566   -0.8746 H   0  0  0  0  0  0  0  0  0  0  0  0
   -9.0280   16.8105   -3.1411 H   0  0  0  0  0  0  0  0  0  0  0  0
   -7.2638   16.4040   -3.2460 H   0  0  0  0  0  0  0  0  0  0  0  0
   -9.5268   15.1334   -4.8561 H   0  0  0  0  0  0  0  0  0  0  0  0
   -8.2566   16.2903   -5.4517 H   0  0  0  0  0  0  0  0  0  0  0  0
   -8.3958   14.6671   -6.9418 H   0  0  0  0  0  0  0  0  0  0  0  0
   -6.9169   13.5642   -6.8106 H   0  0  0  0  0  0  0  0  0  0  0  0
   -8.5600   12.0860   -7.4145 H   0  0  0  0  0  0  0  0  0  0  0  0
   -8.5406   11.9773   -5.5993 H   0  0  0  0  0  0  0  0  0  0  0  0
  -11.2236   15.2406   -6.9810 H   0  0  0  0  0  0  0  0  0  0  0  0
  -10.2767   10.4662   -9.7659 H   0  0  0  0  0  0  0  0  0  0  0  0
  -12.3864    9.4839   -9.6723 H   0  0  0  0  0  0  0  0  0  0  0  0
  -12.6210    9.6220  -11.4607 H   0  0  0  0  0  0  0  0  0  0  0  0
  -10.6025    7.8423  -10.0183 H   0  0  0  0  0  0  0  0  0  0  0  0
  -12.1048    7.3174  -10.8739 H   0  0  0  0  0  0  0  0  0  0  0  0
   -8.8539    8.5974  -11.1469 H   0  0  0  0  0  0  0  0  0  0  0  0
   -8.8717    8.6900  -12.9427 H   0  0  0  0  0  0  0  0  0  0  0  0
   -9.0450   10.9378  -11.8869 H   0  0  0  0  0  0  0  0  0  0  0  0
  -10.5159   10.5097  -12.8531 H   0  0  0  0  0  0  0  0  0  0  0  0
  -10.3552   11.4566   -8.5464 H   0  0  0  0  0  0  0  0  0  0  0  0
  -11.4806   14.8410  -11.5249 H   0  0  0  0  0  0  0  0  0  0  0  0
  -11.8600   13.5220  -12.7400 H   0  0  0  0  0  0  0  0  0  0  0  0
  -16.4685   12.0670  -13.5526 H   0  0  0  0  0  0  0  0  0  0  0  0
  -16.7498   13.5672  -15.4635 H   0  0  0  0  0  0  0  0  0  0  0  0
  -13.9323   17.2521  -15.6804 H   0  0  0  0  0  0  0  0  0  0  0  0
  -13.0588   16.0942  -16.6500 H   0  0  0  0  0  0  0  0  0  0  0  0
  -13.1956   17.4152  -10.1442 H   0  0  0  0  0  0  0  0  0  0  0  0
  -12.2100   16.6410   -8.2380 H   0  0  0  0  0  0  0  0  0  0  0  0
   -8.8244   12.9579   -4.1138 H   0  0  0  0  0  0  0  0  0  0  0  0
   -7.0648   12.5292   -4.2233 H   0  0  0  0  0  0  0  0  0  0  0  0
   -7.7361   13.0648   -1.8909 H   0  0  0  0  0  0  0  0  0  0  0  0
   -6.5241   14.2357   -2.5426 H   0  0  0  0  0  0  0  0  0  0  0  0
  1  2  1  0
  2  3  1  0
  3  4  1  0
  4  5  1  0
  5  6  1  0
  6  7  1  0
  7  8  1  0
  8  9  1  0
  9 10  2  0
 10 11  1  0
 11 12  2  0
 12 13  1  0
 13 14  1  0
 14 15  1  0
 15 16  1  0
 16 17  1  0
 17 18  1  0
 18 19  1  0
 19 20  1  0
 13 21  2  0
 12 22  1  0
 22 23  1  0
 23 24  1  0
 24 25  2  0
 25 26  1  0
 25 27  1  0
 27 28  2  0
 28 29  1  0
 29 30  2  0
 30 31  1  0
 31 32  1  0
 32 33  1  0
 22 34  1  0
 34 35  2  0
 35 36  1  0
  5 37  1  0
 37 38  1  0
 38  2  1  0
 21  9  1  0
 30 24  1  0
 36 11  1  0
 20 15  1  0
 33 29  1  0
  1 39  1  0
  1 40  1  0
  1 41  1  0
  3 42  1  0
  3 43  1  0
  4 44  1  0
  4 45  1  0
  6 46  1  0
  6 47  1  0
  7 48  1  0
  7 49  1  0
 10 50  1  0
 15 51  1  0
 16 52  1  0
 16 53  1  0
 17 54  1  0
 17 55  1  0
 19 56  1  0
 19 57  1  0
 20 58  1  0
 20 59  1  0
 21 60  1  0
 22 61  1  0
 23 62  1  0
 27 63  1  0
 28 64  1  0
 32 65  1  0
 32 66  1  0
 35 67  1  0
 36 68  1  0
 37 69  1  0
 37 70  1  0
 38 71  1  0
 38 72  1  0
M  END
>  <meeko>  (7) 
{"is_sidechain": [false], "free_energy": -8.749, "intermolecular_energy": -12.759, "internal_energy": -1.829}

$$$$
docked_poses
     RDKit          3D

 72 77  0  0  0  0  0  0  0  0999 V2000
   -8.2350   18.2570    0.4080 C   0  0  0  0  0  0  0  0  0  0  0  0
   -8.5570   18.3810   -1.0030 N   0  0  0  0  0  0  0  0  0  0  0  0
   -7.5570   19.1900   -1.6770 C   0  0  0  0  0  0  0  0  0  0  0  0
   -7.8290   19.2920   -3.1840 C   0  0  0  0  0  0  0  0  0  0  0  0
   -7.9090   17.9830   -3.8250 N   0  0  0  0  0  0  0  0  0  0  0  0
   -8.2350   18.1630   -5.2350 C   0  0  0  0  0  0  0  0  0  0  0  0
   -9.5720   17.5660   -5.7070 C   0  0  0  0  0  0  0  0  0  0  0  0
   -9.4190   16.2840   -6.2680 O   0  0  0  0  0  0  0  0  0  0  0  0
  -10.1560   16.0340   -7.4000 C   0  0  0  0  0  0  0  0  0  0  0  0
  -11.2750   16.7050   -7.6960 C   0  0  0  0  0  0  0  0  0  0  0  0
  -11.9810   16.4370   -8.8030 C   0  0  0  0  0  0  0  0  0  0  0  0
  -11.6160   15.4700   -9.6910 C   0  0  0  0  0  0  0  0  0  0  0  0
  -10.4840   14.7690   -9.4070 C   0  0  0  0  0  0  0  0  0  0  0  0
  -10.0110   13.7780  -10.2480 O   0  0  0  0  0  0  0  0  0  0  0  0
   -9.8730   12.4370   -9.8460 C   0  0  0  0  0  0  0  0  0  0  0  0
  -10.9480   11.9830   -8.8580 C   0  0  0  0  0  0  0  0  0  0  0  0
  -10.9780   10.4630   -8.7380 C   0  0  0  0  0  0  0  0  0  0  0  0
  -11.1740    9.8650   -9.9970 O   0  0  0  0  0  0  0  0  0  0  0  0
  -10.0740   10.1140  -10.8300 C   0  0  0  0  0  0  0  0  0  0  0  0
   -9.9850   11.6050  -11.1350 C   0  0  0  0  0  0  0  0  0  0  0  0
   -9.8020   15.0810   -8.2810 C   0  0  0  0  0  0  0  0  0  0  0  0
  -12.4240   15.3050  -10.7780 C   0  0  0  0  0  0  0  0  0  0  0  0
  -12.4070   14.5150  -11.7870 N   0  0  0  0  0  0  0  0  0  0  0  0
  -13.2430   13.8110  -12.4540 C   0  0  0  0  0  0  0  0  0  0  0  0
  -13.6640   14.2350  -13.6800 C   0  0  0  0  0  0  0  0  0  0  0  0
  -13.1320   15.7110  -14.4340 Cl  0  0  0  0  0  0  0  0  0  0  0  0
  -14.5320   13.5100  -14.4120 C   0  0  0  0  0  0  0  0  0  0  0  0
  -15.0270   12.3470  -13.9670 C   0  0  0  0  0  0  0  0  0  0  0  0
  -14.6260   11.9230  -12.7660 C   0  0  0  0  0  0  0  0  0  0  0  0
  -13.7620   12.6360  -12.0320 C   0  0  0  0  0  0  0  0  0  0  0  0
  -13.5410   12.0510  -10.9690 O   0  0  0  0  0  0  0  0  0  0  0  0
  -14.3520   10.8790  -10.9160 C   0  0  0  0  0  0  0  0  0  0  0  0
  -14.9730   10.8890  -12.1960 O   0  0  0  0  0  0  0  0  0  0  0  0
  -13.4510   16.0580  -10.8710 N   0  0  0  0  0  0  0  0  0  0  0  0
  -13.7020   16.9240   -9.9900 C   0  0  0  0  0  0  0  0  0  0  0  0
  -13.0170   17.1510   -8.9590 N   0  0  0  0  0  0  0  0  0  0  0  0
   -8.9250   17.2020   -3.1360 C   0  0  0  0  0  0  0  0  0  0  0  0
   -8.6280   17.0740   -1.6300 C   0  0  0  0  0  0  0  0  0  0  0  0
   -9.0938   18.5877    1.0105 H   0  0  0  0  0  0  0  0  0  0  0  0
   -8.0064   17.2065    0.6410 H   0  0  0  0  0  0  0  0  0  0  0  0
   -7.3609   18.8828    0.6410 H   0  0  0  0  0  0  0  0  0  0  0  0
   -7.5660   20.2012   -1.2441 H   0  0  0  0  0  0  0  0  0  0  0  0
   -6.5773   18.7096   -1.5377 H   0  0  0  0  0  0  0  0  0  0  0  0
   -8.7827   19.8186   -3.3359 H   0  0  0  0  0  0  0  0  0  0  0  0
   -6.9899   19.8379   -3.6400 H   0  0  0  0  0  0  0  0  0  0  0  0
   -8.2604   19.2438   -5.4378 H   0  0  0  0  0  0  0  0  0  0  0  0
   -7.4577   17.6153   -5.7880 H   0  0  0  0  0  0  0  0  0  0  0  0
  -10.2514   17.4955   -4.8448 H   0  0  0  0  0  0  0  0  0  0  0  0
   -9.9778   18.2271   -6.4869 H   0  0  0  0  0  0  0  0  0  0  0  0
  -11.6236   17.4951   -7.0147 H   0  0  0  0  0  0  0  0  0  0  0  0
   -8.9141   12.3103   -9.3221 H   0  0  0  0  0  0  0  0  0  0  0  0
  -10.7341   12.4170   -7.8701 H   0  0  0  0  0  0  0  0  0  0  0  0
  -11.9269   12.3233   -9.2266 H   0  0  0  0  0  0  0  0  0  0  0  0
  -10.0222   10.1156   -8.3188 H   0  0  0  0  0  0  0  0  0  0  0  0
  -11.8116   10.1782   -8.0793 H   0  0  0  0  0  0  0  0  0  0  0  0
   -9.1524    9.7888  -10.3251 H   0  0  0  0  0  0  0  0  0  0  0  0
  -10.1971    9.5573  -11.7707 H   0  0  0  0  0  0  0  0  0  0  0  0
   -9.0979   11.7902  -11.7585 H   0  0  0  0  0  0  0  0  0  0  0  0
  -10.9027   11.9055  -11.6618 H   0  0  0  0  0  0  0  0  0  0  0  0
   -8.8857   14.5104   -8.0692 H   0  0  0  0  0  0  0  0  0  0  0  0
  -11.8192   16.0334  -11.3381 H   0  0  0  0  0  0  0  0  0  0  0  0
  -11.4390   14.4060  -12.1900 H   0  0  0  0  0  0  0  0  0  0  0  0
  -14.8421   13.8820  -15.3996 H   0  0  0  0  0  0  0  0  0  0  0  0
  -15.7381   11.7626  -14.5694 H   0  0  0  0  0  0  0  0  0  0  0  0
  -13.7400    9.9758  -10.7761 H   0  0  0  0  0  0  0  0  0  0  0  0
  -15.0646   10.8711  -10.0781 H   0  0  0  0  0  0  0  0  0  0  0  0
  -14.6030   17.5380  -10.1359 H   0  0  0  0  0  0  0  0  0  0  0  0
  -13.2710   17.8450   -8.3080 H   0  0  0  0  0  0  0  0  0  0  0  0
   -9.9003   17.6940   -3.2656 H   0  0  0  0  0  0  0  0  0  0  0  0
   -8.9300   16.1911   -3.5696 H   0  0  0  0  0  0  0  0  0  0  0  0
   -9.4285   16.4890   -1.1535 H   0  0  0  0  0  0  0  0  0  0  0  0
   -7.6578   16.5710   -1.5047 H   0  0  0  0  0  0  0  0  0  0  0  0
  1  2  1  0
  2  3  1  0
  3  4  1  0
  4  5  1  0
  5  6  1  0
  6  7  1  0
  7  8  1  0
  8  9  1  0
  9 10  2  0
 10 11  1  0
 11 12  2  0
 12 13  1  0
 13 14  1  0
 14 15  1  0
 15 16  1  0
 16 17  1  0
 17 18  1  0
 18 19  1  0
 19 20  1  0
 13 21  2  0
 12 22  1  0
 22 23  1  0
 23 24  1  0
 24 25  2  0
 25 26  1  0
 25 27  1  0
 27 28  2  0
 28 29  1  0
 29 30  2  0
 30 31  1  0
 31 32  1  0
 32 33  1  0
 22 34  1  0
 34 35  2  0
 35 36  1  0
  5 37  1  0
 37 38  1  0
 38  2  1  0
 21  9  1  0
 30 24  1  0
 36 11  1  0
 20 15  1  0
 33 29  1  0
  1 39  1  0
  1 40  1  0
  1 41  1  0
  3 42  1  0
  3 43  1  0
  4 44  1  0
  4 45  1  0
  6 46  1  0
  6 47  1  0
  7 48  1  0
  7 49  1  0
 10 50  1  0
 15 51  1  0
 16 52  1  0
 16 53  1  0
 17 54  1  0
 17 55  1  0
 19 56  1  0
 19 57  1  0
 20 58  1  0
 20 59  1  0
 21 60  1  0
 22 61  1  0
 23 62  1  0
 27 63  1  0
 28 64  1  0
 32 65  1  0
 32 66  1  0
 35 67  1  0
 36 68  1  0
 37 69  1  0
 37 70  1  0
 38 71  1  0
 38 72  1  0
M  END
>  <meeko>  (8) 
{"is_sidechain": [false], "free_energy": -8.66, "intermolecular_energy": -12.77, "internal_energy": -1.689}

$$$$
docked_poses
     RDKit          3D

 72 77  0  0  0  0  0  0  0  0999 V2000
  -17.5750   12.5650  -15.5470 C   0  0  0  0  0  0  0  0  0  0  0  0
  -16.4030   12.9440  -14.7760 N   0  0  0  0  0  0  0  0  0  0  0  0
  -15.3620   13.4420  -15.6580 C   0  0  0  0  0  0  0  0  0  0  0  0
  -14.1290   13.9130  -14.8740 C   0  0  0  0  0  0  0  0  0  0  0  0
  -14.4570   14.9340  -13.8830 N   0  0  0  0  0  0  0  0  0  0  0  0
  -13.2510   15.2780  -13.1380 C   0  0  0  0  0  0  0  0  0  0  0  0
  -13.2150   14.8440  -11.6630 C   0  0  0  0  0  0  0  0  0  0  0  0
  -13.1630   15.9410  -10.7810 O   0  0  0  0  0  0  0  0  0  0  0  0
  -12.1830   15.8890   -9.8200 C   0  0  0  0  0  0  0  0  0  0  0  0
  -12.0630   16.8150   -8.8610 C   0  0  0  0  0  0  0  0  0  0  0  0
  -11.0930   16.7470   -7.9380 C   0  0  0  0  0  0  0  0  0  0  0  0
  -10.1700   15.7440   -7.9150 C   0  0  0  0  0  0  0  0  0  0  0  0
  -10.2690   14.7940   -8.8860 C   0  0  0  0  0  0  0  0  0  0  0  0
   -9.3980   13.7220   -8.9460 O   0  0  0  0  0  0  0  0  0  0  0  0
   -9.7450   12.4860   -9.5210 C   0  0  0  0  0  0  0  0  0  0  0  0
   -8.5910   11.8150  -10.2670 C   0  0  0  0  0  0  0  0  0  0  0  0
   -8.8990   10.3480  -10.5510 C   0  0  0  0  0  0  0  0  0  0  0  0
   -9.1920    9.6580   -9.3610 O   0  0  0  0  0  0  0  0  0  0  0  0
  -10.3780   10.1460   -8.7950 C   0  0  0  0  0  0  0  0  0  0  0  0
  -10.1810   11.5910   -8.3500 C   0  0  0  0  0  0  0  0  0  0  0  0
  -11.2690   14.9020   -9.7900 C   0  0  0  0  0  0  0  0  0  0  0  0
   -9.2410   15.7950   -6.9180 C   0  0  0  0  0  0  0  0  0  0  0  0
   -8.2440   15.0580   -6.5920 N   0  0  0  0  0  0  0  0  0  0  0  0
   -7.5540   14.8050   -5.5440 C   0  0  0  0  0  0  0  0  0  0  0  0
   -6.2410   15.1700   -5.4900 C   0  0  0  0  0  0  0  0  0  0  0  0
   -5.4040   15.9860   -6.7790 Cl  0  0  0  0  0  0  0  0  0  0  0  0
   -5.4920   14.9310   -4.3950 C   0  0  0  0  0  0  0  0  0  0  0  0
   -5.9980   14.3150   -3.3180 C   0  0  0  0  0  0  0  0  0  0  0  0
   -7.2810   13.9470   -3.3620 C   0  0  0  0  0  0  0  0  0  0  0  0
   -8.0340   14.1830   -4.4440 C   0  0  0  0  0  0  0  0  0  0  0  0
   -9.1760   13.7570   -4.2540 O   0  0  0  0  0  0  0  0  0  0  0  0
   -9.2190   13.1180   -2.9790 C   0  0  0  0  0  0  0  0  0  0  0  0
   -7.9120   13.3710   -2.4760 O   0  0  0  0  0  0  0  0  0  0  0  0
   -9.3050   16.7720   -6.0990 N   0  0  0  0  0  0  0  0  0  0  0  0
  -10.2010   17.6540   -6.2100 C   0  0  0  0  0  0  0  0  0  0  0  0
  -11.0990   17.6890   -7.0900 N   0  0  0  0  0  0  0  0  0  0  0  0
  -15.4930   14.4020  -13.0090 C   0  0  0  0  0  0  0  0  0  0  0  0
  -16.7410   13.9630  -13.7990 C   0  0  0  0  0  0  0  0  0  0  0  0
  -18.3943   12.3001  -14.8625 H   0  0  0  0  0  0  0  0  0  0  0  0
  -17.8853   13.4086  -16.1811 H   0  0  0  0  0  0  0  0  0  0  0  0
  -17.3326   11.6994  -16.1811 H   0  0  0  0  0  0  0  0  0  0  0  0
  -15.0614   12.6368  -16.3445 H   0  0  0  0  0  0  0  0  0  0  0  0
  -15.7651   14.3029  -16.2115 H   0  0  0  0  0  0  0  0  0  0  0  0
  -13.6871   13.0482  -14.3575 H   0  0  0  0  0  0  0  0  0  0  0  0
  -13.4238   14.3566  -15.5922 H   0  0  0  0  0  0  0  0  0  0  0  0
  -12.3969   14.8074  -13.6469 H   0  0  0  0  0  0  0  0  0  0  0  0
  -13.2198   16.3774  -13.1214 H   0  0  0  0  0  0  0  0  0  0  0  0
  -14.1202   14.2582  -11.4451 H   0  0  0  0  0  0  0  0  0  0  0  0
  -12.3028   14.2484  -11.5111 H   0  0  0  0  0  0  0  0  0  0  0  0
  -12.7769   17.6513   -8.8294 H   0  0  0  0  0  0  0  0  0  0  0  0
  -10.5338   12.6425  -10.2715 H   0  0  0  0  0  0  0  0  0  0  0  0
   -8.4269   12.3386  -11.2204 H   0  0  0  0  0  0  0  0  0  0  0  0
   -7.6908   11.8671   -9.6370 H   0  0  0  0  0  0  0  0  0  0  0  0
   -9.7652   10.2859  -11.2261 H   0  0  0  0  0  0  0  0  0  0  0  0
   -8.0156    9.8868  -11.0167 H   0  0  0  0  0  0  0  0  0  0  0  0
  -11.1847   10.1004   -9.5414 H   0  0  0  0  0  0  0  0  0  0  0  0
  -10.6448    9.5305   -7.9232 H   0  0  0  0  0  0  0  0  0  0  0  0
  -11.1290   11.9720   -7.9425 H   0  0  0  0  0  0  0  0  0  0  0  0
   -9.3900   11.6123   -7.5859 H   0  0  0  0  0  0  0  0  0  0  0  0
  -11.3408   14.1214  -10.5617 H   0  0  0  0  0  0  0  0  0  0  0  0
   -9.8979   15.1908   -6.2750 H   0  0  0  0  0  0  0  0  0  0  0  0
   -7.8830   14.4970   -7.4080 H   0  0  0  0  0  0  0  0  0  0  0  0
   -4.4392   15.2496   -4.3854 H   0  0  0  0  0  0  0  0  0  0  0  0
   -5.3791   14.1195   -2.4299 H   0  0  0  0  0  0  0  0  0  0  0  0
   -9.9891   13.5656   -2.3335 H   0  0  0  0  0  0  0  0  0  0  0  0
   -9.4761   12.0496   -3.0272 H   0  0  0  0  0  0  0  0  0  0  0  0
  -10.1961   18.4669   -5.4689 H   0  0  0  0  0  0  0  0  0  0  0  0
  -11.7700   18.4090   -7.1190 H   0  0  0  0  0  0  0  0  0  0  0  0
  -15.0904   13.5328  -12.4682 H   0  0  0  0  0  0  0  0  0  0  0  0
  -15.7932   15.1982  -12.3119 H   0  0  0  0  0  0  0  0  0  0  0  0
  -17.4864   13.5577  -13.0989 H   0  0  0  0  0  0  0  0  0  0  0  0
  -17.1473   14.8372  -14.3288 H   0  0  0  0  0  0  0  0  0  0  0  0
  1  2  1  0
  2  3  1  0
  3  4  1  0
  4  5  1  0
  5  6  1  0
  6  7  1  0
  7  8  1  0
  8  9  1  0
  9 10  2  0
 10 11  1  0
 11 12  2  0
 12 13  1  0
 13 14  1  0
 14 15  1  0
 15 16  1  0
 16 17  1  0
 17 18  1  0
 18 19  1  0
 19 20  1  0
 13 21  2  0
 12 22  1  0
 22 23  1  0
 23 24  1  0
 24 25  2  0
 25 26  1  0
 25 27  1  0
 27 28  2  0
 28 29  1  0
 29 30  2  0
 30 31  1  0
 31 32  1  0
 32 33  1  0
 22 34  1  0
 34 35  2  0
 35 36  1  0
  5 37  1  0
 37 38  1  0
 38  2  1  0
 21  9  1  0
 30 24  1  0
 36 11  1  0
 20 15  1  0
 33 29  1  0
  1 39  1  0
  1 40  1  0
  1 41  1  0
  3 42  1  0
  3 43  1  0
  4 44  1  0
  4 45  1  0
  6 46  1  0
  6 47  1  0
  7 48  1  0
  7 49  1  0
 10 50  1  0
 15 51  1  0
 16 52  1  0
 16 53  1  0
 17 54  1  0
 17 55  1  0
 19 56  1  0
 19 57  1  0
 20 58  1  0
 20 59  1  0
 21 60  1  0
 22 61  1  0
 23 62  1  0
 27 63  1  0
 28 64  1  0
 32 65  1  0
 32 66  1  0
 35 67  1  0
 36 68  1  0
 37 69  1  0
 37 70  1  0
 38 71  1  0
 38 72  1  0
M  END
>  <meeko>  (9) 
{"is_sidechain": [false], "free_energy": -8.6, "intermolecular_energy": -12.801, "internal_energy": -1.569}

$$$$
docked_poses
     RDKit          3D

 72 77  0  0  0  0  0  0  0  0999 V2000
  -17.7220   12.3910  -15.7630 C   0  0  0  0  0  0  0  0  0  0  0  0
  -16.5800   12.8770  -15.0080 N   0  0  0  0  0  0  0  0  0  0  0  0
  -15.6430   13.5480  -15.8920 C   0  0  0  0  0  0  0  0  0  0  0  0
  -14.4510   14.1330  -15.1210 C   0  0  0  0  0  0  0  0  0  0  0  0
  -14.8690   15.0510  -14.0660 N   0  0  0  0  0  0  0  0  0  0  0  0
  -13.6890   15.5080  -13.3390 C   0  0  0  0  0  0  0  0  0  0  0  0
  -13.5140   14.9630  -11.9120 C   0  0  0  0  0  0  0  0  0  0  0  0
  -13.4130   15.9890  -10.9530 O   0  0  0  0  0  0  0  0  0  0  0  0
  -12.3930   15.8600  -10.0440 C   0  0  0  0  0  0  0  0  0  0  0  0
  -12.1990   16.7310   -9.0470 C   0  0  0  0  0  0  0  0  0  0  0  0
  -11.1890   16.5870   -8.1760 C   0  0  0  0  0  0  0  0  0  0  0  0
  -10.2980   15.5590   -8.2480 C   0  0  0  0  0  0  0  0  0  0  0  0
  -10.4720   14.6630   -9.2590 C   0  0  0  0  0  0  0  0  0  0  0  0
   -9.6380   13.5710   -9.4150 O   0  0  0  0  0  0  0  0  0  0  0  0
  -10.0240   12.4070  -10.1040 C   0  0  0  0  0  0  0  0  0  0  0  0
   -8.9020   11.7940  -10.9430 C   0  0  0  0  0  0  0  0  0  0  0  0
   -9.2460   10.3700  -11.3670 C   0  0  0  0  0  0  0  0  0  0  0  0
   -9.5260    9.5680  -10.2460 O   0  0  0  0  0  0  0  0  0  0  0  0
  -10.6890   10.0160   -9.6030 C   0  0  0  0  0  0  0  0  0  0  0  0
  -10.4510   11.4050   -9.0190 C   0  0  0  0  0  0  0  0  0  0  0  0
  -11.5090   14.8460  -10.1080 C   0  0  0  0  0  0  0  0  0  0  0  0
   -9.3220   15.5310   -7.2950 C   0  0  0  0  0  0  0  0  0  0  0  0
   -8.3350   14.7500   -7.0560 N   0  0  0  0  0  0  0  0  0  0  0  0
   -7.4570   14.5840   -6.1390 C   0  0  0  0  0  0  0  0  0  0  0  0
   -7.6600   13.6540   -5.1620 C   0  0  0  0  0  0  0  0  0  0  0  0
   -9.0690   12.6370   -5.0660 Cl  0  0  0  0  0  0  0  0  0  0  0  0
   -6.7490   13.4460   -4.1920 C   0  0  0  0  0  0  0  0  0  0  0  0
   -5.6090   14.1490   -4.1360 C   0  0  0  0  0  0  0  0  0  0  0  0
   -5.4010   15.0670   -5.0830 C   0  0  0  0  0  0  0  0  0  0  0  0
   -6.3000   15.2790   -6.0530 C   0  0  0  0  0  0  0  0  0  0  0  0
   -5.8940   16.1660   -6.8070 O   0  0  0  0  0  0  0  0  0  0  0  0
   -4.6560   16.6630   -6.3010 C   0  0  0  0  0  0  0  0  0  0  0  0
   -4.4220   15.8050   -5.1910 O   0  0  0  0  0  0  0  0  0  0  0  0
   -9.3170   16.4660   -6.4260 N   0  0  0  0  0  0  0  0  0  0  0  0
  -10.1900   17.3780   -6.4490 C   0  0  0  0  0  0  0  0  0  0  0  0
  -11.1260   17.4840   -7.2830 N   0  0  0  0  0  0  0  0  0  0  0  0
  -15.7960   14.3480  -13.1920 C   0  0  0  0  0  0  0  0  0  0  0  0
  -17.0070   13.7940  -13.9670 C   0  0  0  0  0  0  0  0  0  0  0  0
  -18.5062   12.0573  -15.0675 H   0  0  0  0  0  0  0  0  0  0  0  0
  -18.1140   13.2003  -16.3966 H   0  0  0  0  0  0  0  0  0  0  0  0
  -17.4106   11.5474  -16.3966 H   0  0  0  0  0  0  0  0  0  0  0  0
  -15.2686   12.8235  -16.6302 H   0  0  0  0  0  0  0  0  0  0  0  0
  -16.1717   14.3772  -16.3849 H   0  0  0  0  0  0  0  0  0  0  0  0
  -13.8840   13.3070  -14.6668 H   0  0  0  0  0  0  0  0  0  0  0  0
  -13.8346   14.6995  -15.8346 H   0  0  0  0  0  0  0  0  0  0  0  0
  -12.8027   15.2147  -13.9207 H   0  0  0  0  0  0  0  0  0  0  0  0
  -13.8181   16.5943  -13.2240 H   0  0  0  0  0  0  0  0  0  0  0  0
  -14.3818   14.3336  -11.6656 H   0  0  0  0  0  0  0  0  0  0  0  0
  -12.5772   14.3870  -11.8861 H   0  0  0  0  0  0  0  0  0  0  0  0
  -12.8837   17.5851   -8.9391 H   0  0  0  0  0  0  0  0  0  0  0  0
  -10.8264   12.6543  -10.8147 H   0  0  0  0  0  0  0  0  0  0  0  0
   -8.7491   12.4091  -11.8420 H   0  0  0  0  0  0  0  0  0  0  0  0
   -7.9870   11.7646  -10.3332 H   0  0  0  0  0  0  0  0  0  0  0  0
  -10.1283   10.3926  -12.0235 H   0  0  0  0  0  0  0  0  0  0  0  0
   -8.3832    9.9428  -11.8990 H   0  0  0  0  0  0  0  0  0  0  0  0
  -11.5140   10.0611  -10.3292 H   0  0  0  0  0  0  0  0  0  0  0  0
  -10.9483    9.3194   -8.7921 H   0  0  0  0  0  0  0  0  0  0  0  0
  -11.3809   11.7600   -8.5507 H   0  0  0  0  0  0  0  0  0  0  0  0
   -9.6416   11.3335   -8.2776 H   0  0  0  0  0  0  0  0  0  0  0  0
  -11.6406   14.1089  -10.9138 H   0  0  0  0  0  0  0  0  0  0  0  0
   -9.9667   14.9128   -6.6529 H   0  0  0  0  0  0  0  0  0  0  0  0
   -8.1960   14.0390   -7.8220 H   0  0  0  0  0  0  0  0  0  0  0  0
   -6.9453   12.6804   -3.4269 H   0  0  0  0  0  0  0  0  0  0  0  0
   -4.8714   13.9758   -3.3385 H   0  0  0  0  0  0  0  0  0  0  0  0
   -3.8547   16.5752   -7.0494 H   0  0  0  0  0  0  0  0  0  0  0  0
   -4.6822   17.7306   -6.0374 H   0  0  0  0  0  0  0  0  0  0  0  0
  -10.1263   18.1505   -5.6685 H   0  0  0  0  0  0  0  0  0  0  0  0
  -11.7750   18.2240   -7.2430 H   0  0  0  0  0  0  0  0  0  0  0  0
  -15.2675   13.5111  -12.7122 H   0  0  0  0  0  0  0  0  0  0  0  0
  -16.1680   15.0629  -12.4433 H   0  0  0  0  0  0  0  0  0  0  0  0
  -17.6693   13.2622  -13.2680 H   0  0  0  0  0  0  0  0  0  0  0  0
  -17.5390   14.6350  -14.4358 H   0  0  0  0  0  0  0  0  0  0  0  0
  1  2  1  0
  2  3  1  0
  3  4  1  0
  4  5  1  0
  5  6  1  0
  6  7  1  0
  7  8  1  0
  8  9  1  0
  9 10  2  0
 10 11  1  0
 11 12  2  0
 12 13  1  0
 13 14  1  0
 14 15  1  0
 15 16  1  0
 16 17  1  0
 17 18  1  0
 18 19  1  0
 19 20  1  0
 13 21  2  0
 12 22  1  0
 22 23  1  0
 23 24  1  0
 24 25  2  0
 25 26  1  0
 25 27  1  0
 27 28  2  0
 28 29  1  0
 29 30  2  0
 30 31  1  0
 31 32  1  0
 32 33  1  0
 22 34  1  0
 34 35  2  0
 35 36  1  0
  5 37  1  0
 37 38  1  0
 38  2  1  0
 21  9  1  0
 30 24  1  0
 36 11  1  0
 20 15  1  0
 33 29  1  0
  1 39  1  0
  1 40  1  0
  1 41  1  0
  3 42  1  0
  3 43  1  0
  4 44  1  0
  4 45  1  0
  6 46  1  0
  6 47  1  0
  7 48  1  0
  7 49  1  0
 10 50  1  0
 15 51  1  0
 16 52  1  0
 16 53  1  0
 17 54  1  0
 17 55  1  0
 19 56  1  0
 19 57  1  0
 20 58  1  0
 20 59  1  0
 21 60  1  0
 22 61  1  0
 23 62  1  0
 27 63  1  0
 28 64  1  0
 32 65  1  0
 32 66  1  0
 35 67  1  0
 36 68  1  0
 37 69  1  0
 37 70  1  0
 38 71  1  0
 38 72  1  0
M  END
>  <meeko>  (10) 
{"is_sidechain": [false], "free_energy": -8.514, "intermolecular_energy": -12.697, "internal_energy": -1.547}

$$$$
