docked_poses
     RDKit          3D

 66 70  0  0  0  0  0  0  0  0999 V2000
   24.5230   26.0220   45.7990 C   0  0  0  0  0  0  0  0  0  0  0  0
   24.5020   26.0090   44.2950 C   0  0  0  0  0  0  0  0  0  0  0  0
   23.4760   26.6810   43.6190 C   0  0  0  0  0  0  0  0  0  0  0  0
   23.4280   26.6850   42.2230 C   0  0  0  0  0  0  0  0  0  0  0  0
   24.4040   26.0220   41.4720 C   0  0  0  0  0  0  0  0  0  0  0  0
   24.2720   26.0640   40.0680 N   0  0  0  0  0  0  0  0  0  0  0  0
   24.8950   25.2470   39.1430 C   0  0  0  0  0  0  0  0  0  0  0  0
   25.6380   24.3020   39.3770 O   0  0  0  0  0  0  0  0  0  0  0  0
   24.5580   25.5500   37.7240 C   0  0  0  0  0  0  0  0  0  0  0  0
   23.3970   26.2810   37.4540 C   0  0  0  0  0  0  0  0  0  0  0  0
   23.0620   26.5990   36.1370 C   0  0  0  0  0  0  0  0  0  0  0  0
   23.8780   26.1860   35.0720 C   0  0  0  0  0  0  0  0  0  0  0  0
   23.5010   26.5190   33.6390 C   0  0  0  0  0  0  0  0  0  0  0  0
   23.8710   27.8950   33.2600 N   0  0  0  0  0  0  0  0  0  0  0  0
   22.9240   28.8630   33.8430 C   0  0  0  0  0  0  0  0  0  0  0  0
   21.4860   28.8340   33.2550 C   0  0  0  0  0  0  0  0  0  0  0  0
   21.4050   28.3180   31.8740 N   0  0  0  0  0  0  0  0  0  0  0  0
   20.2040   28.7970   31.1980 C   0  0  0  0  0  0  0  0  0  0  0  0
   22.6250   28.6650   31.1340 C   0  0  0  0  0  0  0  0  0  0  0  0
   23.9010   28.0660   31.7870 C   0  0  0  0  0  0  0  0  0  0  0  0
   25.0260   25.4280   35.3490 C   0  0  0  0  0  0  0  0  0  0  0  0
   25.3660   25.1110   36.6670 C   0  0  0  0  0  0  0  0  0  0  0  0
   25.4430   25.3750   42.1430 C   0  0  0  0  0  0  0  0  0  0  0  0
   25.5060   25.3640   43.5480 C   0  0  0  0  0  0  0  0  0  0  0  0
   26.5840   24.7120   44.1940 N   0  0  0  0  0  0  0  0  0  0  0  0
   27.7580   25.3310   44.4950 C   0  0  0  0  0  0  0  0  0  0  0  0
   28.6380   24.7690   45.2970 N   0  0  0  0  0  0  0  0  0  0  0  0
   29.7470   25.5810   45.4860 C   0  0  0  0  0  0  0  0  0  0  0  0
   30.8410   25.1560   46.3540 C   0  0  0  0  0  0  0  0  0  0  0  0
   31.9530   25.9550   46.6410 C   0  0  0  0  0  0  0  0  0  0  0  0
   32.9550   25.4790   47.4910 C   0  0  0  0  0  0  0  0  0  0  0  0
   32.8150   24.2130   48.0330 C   0  0  0  0  0  0  0  0  0  0  0  0
   31.7630   23.4090   47.7840 N   0  0  0  0  0  0  0  0  0  0  0  0
   30.8050   23.8980   46.9550 C   0  0  0  0  0  0  0  0  0  0  0  0
   29.6980   26.7750   44.7960 C   0  0  0  0  0  0  0  0  0  0  0  0
   28.2330   26.8880   43.9150 S   0  0  0  0  0  0  0  0  0  0  0  0
   23.6464   25.4794   46.1826 H   0  0  0  0  0  0  0  0  0  0  0  0
   25.4417   25.5344   46.1571 H   0  0  0  0  0  0  0  0  0  0  0  0
   24.4963   27.0617   46.1571 H   0  0  0  0  0  0  0  0  0  0  0  0
   22.7009   27.2105   44.1925 H   0  0  0  0  0  0  0  0  0  0  0  0
   22.6133   27.2156   41.7085 H   0  0  0  0  0  0  0  0  0  0  0  0
   23.5760   26.7040   39.7120 H   0  0  0  0  0  0  0  0  0  0  0  0
   22.7473   26.6056   38.2801 H   0  0  0  0  0  0  0  0  0  0  0  0
   22.1500   27.1787   35.9316 H   0  0  0  0  0  0  0  0  0  0  0  0
   24.0172   25.8177   32.9669 H   0  0  0  0  0  0  0  0  0  0  0  0
   22.4077   26.4327   33.5537 H   0  0  0  0  0  0  0  0  0  0  0  0
   22.8526   28.6589   34.9215 H   0  0  0  0  0  0  0  0  0  0  0  0
   23.3264   29.8585   33.6040 H   0  0  0  0  0  0  0  0  0  0  0  0
   20.8634   28.1952   33.8986 H   0  0  0  0  0  0  0  0  0  0  0  0
   21.1376   29.8769   33.2228 H   0  0  0  0  0  0  0  0  0  0  0  0
   19.4559   29.0954   31.9472 H   0  0  0  0  0  0  0  0  0  0  0  0
   20.4581   29.6626   30.5686 H   0  0  0  0  0  0  0  0  0  0  0  0
   19.7926   27.9941   30.5686 H   0  0  0  0  0  0  0  0  0  0  0  0
   22.5382   28.2787   30.1077 H   0  0  0  0  0  0  0  0  0  0  0  0
   22.7245   29.7604   31.1438 H   0  0  0  0  0  0  0  0  0  0  0  0
   24.0729   27.0763   31.3388 H   0  0  0  0  0  0  0  0  0  0  0  0
   24.6986   28.7987   31.5945 H   0  0  0  0  0  0  0  0  0  0  0  0
   25.6632   25.0806   34.5224 H   0  0  0  0  0  0  0  0  0  0  0  0
   26.2681   24.5167   36.8745 H   0  0  0  0  0  0  0  0  0  0  0  0
   26.2261   24.8649   41.5629 H   0  0  0  0  0  0  0  0  0  0  0  0
   26.7580   23.8030   43.7740 H   0  0  0  0  0  0  0  0  0  0  0  0
   32.0386   26.9580   46.1976 H   0  0  0  0  0  0  0  0  0  0  0  0
   33.8350   26.0964   47.7241 H   0  0  0  0  0  0  0  0  0  0  0  0
   33.6052   23.8435   48.7031 H   0  0  0  0  0  0  0  0  0  0  0  0
   29.9379   23.2554   46.7421 H   0  0  0  0  0  0  0  0  0  0  0  0
   30.4854   27.5430   44.8096 H   0  0  0  0  0  0  0  0  0  0  0  0
  1  2  1  0
  2  3  2  0
  3  4  1  0
  4  5  2  0
  5  6  1  0
  6  7  1  0
  7  8  2  0
  7  9  1  0
  9 10  2  0
 10 11  1  0
 11 12  2  0
 12 13  1  0
 13 14  1  0
 14 15  1  0
 15 16  1  0
 16 17  1  0
 17 18  1  0
 17 19  1  0
 19 20  1  0
 12 21  1  0
 21 22  2  0
  5 23  1  0
 23 24  2  0
 24 25  1  0
 25 26  1  0
 26 27  2  0
 27 28  1  0
 28 29  1  0
 29 30  2  0
 30 31  1  0
 31 32  2  0
 32 33  1  0
 33 34  2  0
 28 35  2  0
 35 36  1  0
 24  2  1  0
 36 26  1  0
 22  9  1  0
 34 29  1  0
 20 14  1  0
  1 37  1  0
  1 38  1  0
  1 39  1  0
  3 40  1  0
  4 41  1  0
  6 42  1  0
 10 43  1  0
 11 44  1  0
 13 45  1  0
 13 46  1  0
 15 47  1  0
 15 48  1  0
 16 49  1  0
 16 50  1  0
 18 51  1  0
 18 52  1  0
 18 53  1  0
 19 54  1  0
 19 55  1  0
 20 56  1  0
 20 57  1  0
 21 58  1  0
 22 59  1  0
 23 60  1  0
 25 61  1  0
 30 62  1  0
 31 63  1  0
 32 64  1  0
 34 65  1  0
 35 66  1  0
M  END
>  <meeko>  (1) 
{"is_sidechain": [false], "free_energy": -12.803, "intermolecular_energy": -18.042, "internal_energy": -0.34}

$$$$
docked_poses
     RDKit          3D

 66 70  0  0  0  0  0  0  0  0999 V2000
   22.8850   26.4860   42.3520 C   0  0  0  0  0  0  0  0  0  0  0  0
   24.2740   26.4520   42.9280 C   0  0  0  0  0  0  0  0  0  0  0  0
   24.4400   26.2080   44.2970 C   0  0  0  0  0  0  0  0  0  0  0  0
   25.7170   26.1730   44.8630 C   0  0  0  0  0  0  0  0  0  0  0  0
   26.8540   26.3760   44.0740 C   0  0  0  0  0  0  0  0  0  0  0  0
   28.1030   26.3380   44.7280 N   0  0  0  0  0  0  0  0  0  0  0  0
   28.7140   25.2390   45.3060 C   0  0  0  0  0  0  0  0  0  0  0  0
   28.3020   24.0850   45.3110 O   0  0  0  0  0  0  0  0  0  0  0  0
   30.0340   25.5240   45.9340 C   0  0  0  0  0  0  0  0  0  0  0  0
   30.5000   26.8420   45.9410 C   0  0  0  0  0  0  0  0  0  0  0  0
   31.7240   27.1470   46.5380 C   0  0  0  0  0  0  0  0  0  0  0  0
   32.5030   26.1400   47.1290 C   0  0  0  0  0  0  0  0  0  0  0  0
   33.8420   26.4730   47.7610 C   0  0  0  0  0  0  0  0  0  0  0  0
   34.9260   26.5910   46.7690 N   0  0  0  0  0  0  0  0  0  0  0  0
   36.2400   26.4340   47.4190 C   0  0  0  0  0  0  0  0  0  0  0  0
   36.6620   27.5880   48.3680 C   0  0  0  0  0  0  0  0  0  0  0  0
   36.0370   28.8890   48.0580 N   0  0  0  0  0  0  0  0  0  0  0  0
   36.8300   29.9970   48.5810 C   0  0  0  0  0  0  0  0  0  0  0  0
   35.8140   29.0100   46.6120 C   0  0  0  0  0  0  0  0  0  0  0  0
   34.8810   27.8950   46.0640 C   0  0  0  0  0  0  0  0  0  0  0  0
   32.0420   24.8150   47.0920 C   0  0  0  0  0  0  0  0  0  0  0  0
   30.8140   24.5070   46.4980 C   0  0  0  0  0  0  0  0  0  0  0  0
   26.6920   26.5920   42.7050 C   0  0  0  0  0  0  0  0  0  0  0  0
   25.4130   26.6280   42.1210 C   0  0  0  0  0  0  0  0  0  0  0  0
   25.2880   26.8320   40.7260 N   0  0  0  0  0  0  0  0  0  0  0  0
   25.3090   25.8180   39.8180 C   0  0  0  0  0  0  0  0  0  0  0  0
   25.3330   26.0620   38.5250 N   0  0  0  0  0  0  0  0  0  0  0  0
   25.3270   24.8880   37.7840 C   0  0  0  0  0  0  0  0  0  0  0  0
   25.3350   24.9290   36.3250 C   0  0  0  0  0  0  0  0  0  0  0  0
   26.1990   24.1620   35.5370 C   0  0  0  0  0  0  0  0  0  0  0  0
   26.1380   24.2500   34.1440 C   0  0  0  0  0  0  0  0  0  0  0  0
   25.2100   25.1060   33.5760 C   0  0  0  0  0  0  0  0  0  0  0  0
   24.3580   25.8630   34.2950 N   0  0  0  0  0  0  0  0  0  0  0  0
   24.4410   25.7570   35.6470 C   0  0  0  0  0  0  0  0  0  0  0  0
   25.3100   23.7390   38.5470 C   0  0  0  0  0  0  0  0  0  0  0  0
   25.2830   24.1360   40.2130 S   0  0  0  0  0  0  0  0  0  0  0  0
   22.1493   26.5040   43.1696 H   0  0  0  0  0  0  0  0  0  0  0  0
   22.7669   27.3873   41.7326 H   0  0  0  0  0  0  0  0  0  0  0  0
   22.7229   25.5916   41.7326 H   0  0  0  0  0  0  0  0  0  0  0  0
   23.5574   26.0425   44.9323 H   0  0  0  0  0  0  0  0  0  0  0  0
   25.8294   25.9838   45.9408 H   0  0  0  0  0  0  0  0  0  0  0  0
   28.6470   27.1880   44.6870 H   0  0  0  0  0  0  0  0  0  0  0  0
   29.9016   27.6391   45.4757 H   0  0  0  0  0  0  0  0  0  0  0  0
   32.0819   28.1871   46.5455 H   0  0  0  0  0  0  0  0  0  0  0  0
   33.7500   27.4291   48.2971 H   0  0  0  0  0  0  0  0  0  0  0  0
   34.1025   25.6486   48.4411 H   0  0  0  0  0  0  0  0  0  0  0  0
   36.2180   25.5041   48.0062 H   0  0  0  0  0  0  0  0  0  0  0  0
   36.9795   26.4289   46.6047 H   0  0  0  0  0  0  0  0  0  0  0  0
   36.3843   27.3084   49.3950 H   0  0  0  0  0  0  0  0  0  0  0  0
   37.7463   27.7209   48.2394 H   0  0  0  0  0  0  0  0  0  0  0  0
   36.8129   29.9731   49.6806 H   0  0  0  0  0  0  0  0  0  0  0  0
   37.8677   29.9038   48.2283 H   0  0  0  0  0  0  0  0  0  0  0  0
   36.4070   30.9492   48.2283 H   0  0  0  0  0  0  0  0  0  0  0  0
   35.3554   29.9882   46.4054 H   0  0  0  0  0  0  0  0  0  0  0  0
   36.7884   28.9095   46.1116 H   0  0  0  0  0  0  0  0  0  0  0  0
   33.8475   28.2680   46.1162 H   0  0  0  0  0  0  0  0  0  0  0  0
   35.2403   27.6885   45.0451 H   0  0  0  0  0  0  0  0  0  0  0  0
   32.6512   24.0126   47.5336 H   0  0  0  0  0  0  0  0  0  0  0  0
   30.4607   23.4656   46.4738 H   0  0  0  0  0  0  0  0  0  0  0  0
   27.5797   26.7366   42.0717 H   0  0  0  0  0  0  0  0  0  0  0  0
   25.8840   27.5970   40.4190 H   0  0  0  0  0  0  0  0  0  0  0  0
   26.9268   23.4892   36.0141 H   0  0  0  0  0  0  0  0  0  0  0  0
   26.8122   23.6525   33.5127 H   0  0  0  0  0  0  0  0  0  0  0  0
   25.1657   25.1718   32.4789 H   0  0  0  0  0  0  0  0  0  0  0  0
   23.7536   26.3683   36.2501 H   0  0  0  0  0  0  0  0  0  0  0  0
   25.3133   22.7156   38.1438 H   0  0  0  0  0  0  0  0  0  0  0  0
  1  2  1  0
  2  3  2  0
  3  4  1  0
  4  5  2  0
  5  6  1  0
  6  7  1  0
  7  8  2  0
  7  9  1  0
  9 10  2  0
 10 11  1  0
 11 12  2  0
 12 13  1  0
 13 14  1  0
 14 15  1  0
 15 16  1  0
 16 17  1  0
 17 18  1  0
 17 19  1  0
 19 20  1  0
 12 21  1  0
 21 22  2  0
  5 23  1  0
 23 24  2  0
 24 25  1  0
 25 26  1  0
 26 27  2  0
 27 28  1  0
 28 29  1  0
 29 30  2  0
 30 31  1  0
 31 32  2  0
 32 33  1  0
 33 34  2  0
 28 35  2  0
 35 36  1  0
 24  2  1  0
 36 26  1  0
 22  9  1  0
 34 29  1  0
 20 14  1  0
  1 37  1  0
  1 38  1  0
  1 39  1  0
  3 40  1  0
  4 41  1  0
  6 42  1  0
 10 43  1  0
 11 44  1  0
 13 45  1  0
 13 46  1  0
 15 47  1  0
 15 48  1  0
 16 49  1  0
 16 50  1  0
 18 51  1  0
 18 52  1  0
 18 53  1  0
 19 54  1  0
 19 55  1  0
 20 56  1  0
 20 57  1  0
 21 58  1  0
 22 59  1  0
 23 60  1  0
 25 61  1  0
 30 62  1  0
 31 63  1  0
 32 64  1  0
 34 65  1  0
 35 66  1  0
M  END
>  <meeko>  (2) 
{"is_sidechain": [false], "free_energy": -11.9, "intermolecular_energy": -16.452, "internal_energy": -0.657}

$$$$
docked_poses
     RDKit          3D

 66 70  0  0  0  0  0  0  0  0999 V2000
   21.8370   27.2570   29.7380 C   0  0  0  0  0  0  0  0  0  0  0  0
   22.2960   27.0330   31.1530 C   0  0  0  0  0  0  0  0  0  0  0  0
   22.8280   25.7870   31.5100 C   0  0  0  0  0  0  0  0  0  0  0  0
   23.2610   25.5470   32.8160 C   0  0  0  0  0  0  0  0  0  0  0  0
   23.1770   26.5460   33.7910 C   0  0  0  0  0  0  0  0  0  0  0  0
   23.6240   26.2140   35.0880 N   0  0  0  0  0  0  0  0  0  0  0  0
   24.6300   25.3270   35.4270 C   0  0  0  0  0  0  0  0  0  0  0  0
   25.3510   24.7030   34.6590 O   0  0  0  0  0  0  0  0  0  0  0  0
   24.8590   25.1830   36.8920 C   0  0  0  0  0  0  0  0  0  0  0  0
   24.3400   26.1580   37.7490 C   0  0  0  0  0  0  0  0  0  0  0  0
   24.5200   26.0440   39.1280 C   0  0  0  0  0  0  0  0  0  0  0  0
   25.2290   24.9590   39.6700 C   0  0  0  0  0  0  0  0  0  0  0  0
   25.4390   24.8480   41.1690 C   0  0  0  0  0  0  0  0  0  0  0  0
   25.4460   26.1600   41.8410 N   0  0  0  0  0  0  0  0  0  0  0  0
   26.8150   26.7050   41.8920 C   0  0  0  0  0  0  0  0  0  0  0  0
   27.8020   25.9550   42.8280 C   0  0  0  0  0  0  0  0  0  0  0  0
   27.1540   25.2270   43.9360 N   0  0  0  0  0  0  0  0  0  0  0  0
   28.0780   25.0130   45.0440 C   0  0  0  0  0  0  0  0  0  0  0  0
   25.9410   25.9350   44.3650 C   0  0  0  0  0  0  0  0  0  0  0  0
   24.9020   26.0720   43.2180 C   0  0  0  0  0  0  0  0  0  0  0  0
   25.7730   24.0010   38.8010 C   0  0  0  0  0  0  0  0  0  0  0  0
   25.5900   24.1110   37.4190 C   0  0  0  0  0  0  0  0  0  0  0  0
   22.6750   27.7960   33.4320 C   0  0  0  0  0  0  0  0  0  0  0  0
   22.2360   28.0530   32.1200 C   0  0  0  0  0  0  0  0  0  0  0  0
   21.7480   29.3400   31.7860 N   0  0  0  0  0  0  0  0  0  0  0  0
   21.1650   30.1750   32.6890 C   0  0  0  0  0  0  0  0  0  0  0  0
   21.8140   30.5820   33.7590 N   0  0  0  0  0  0  0  0  0  0  0  0
   21.0260   31.4040   34.5520 C   0  0  0  0  0  0  0  0  0  0  0  0
   21.5460   31.9570   35.7990 C   0  0  0  0  0  0  0  0  0  0  0  0
   20.9460   33.0200   36.4810 C   0  0  0  0  0  0  0  0  0  0  0  0
   21.5000   33.4860   37.6760 C   0  0  0  0  0  0  0  0  0  0  0  0
   22.6450   32.8730   38.1560 C   0  0  0  0  0  0  0  0  0  0  0  0
   23.2580   31.8470   37.5330 N   0  0  0  0  0  0  0  0  0  0  0  0
   22.6960   31.4150   36.3740 C   0  0  0  0  0  0  0  0  0  0  0  0
   19.7590   31.6240   34.0520 C   0  0  0  0  0  0  0  0  0  0  0  0
   19.5480   30.7750   32.5800 S   0  0  0  0  0  0  0  0  0  0  0  0
   20.8485   27.7394   29.7452 H   0  0  0  0  0  0  0  0  0  0  0  0
   22.5574   27.9048   29.2171 H   0  0  0  0  0  0  0  0  0  0  0  0
   21.7696   26.2905   29.2171 H   0  0  0  0  0  0  0  0  0  0  0  0
   22.9053   24.9907   30.7550 H   0  0  0  0  0  0  0  0  0  0  0  0
   23.6725   24.5617   33.0805 H   0  0  0  0  0  0  0  0  0  0  0  0
   23.2240   26.7550   35.8420 H   0  0  0  0  0  0  0  0  0  0  0  0
   23.7892   27.0159   37.3358 H   0  0  0  0  0  0  0  0  0  0  0  0
   24.1028   26.8110   39.7971 H   0  0  0  0  0  0  0  0  0  0  0  0
   24.6273   24.2392   41.5940 H   0  0  0  0  0  0  0  0  0  0  0  0
   26.4233   24.3852   41.3333 H   0  0  0  0  0  0  0  0  0  0  0  0
   27.2282   26.6777   40.8729 H   0  0  0  0  0  0  0  0  0  0  0  0
   26.7196   27.7194   42.3065 H   0  0  0  0  0  0  0  0  0  0  0  0
   28.3668   25.2302   42.2233 H   0  0  0  0  0  0  0  0  0  0  0  0
   28.4441   26.7210   43.2874 H   0  0  0  0  0  0  0  0  0  0  0  0
   27.5427   25.1370   45.9970 H   0  0  0  0  0  0  0  0  0  0  0  0
   28.4914   23.9953   44.9853 H   0  0  0  0  0  0  0  0  0  0  0  0
   28.8967   25.7453   44.9853 H   0  0  0  0  0  0  0  0  0  0  0  0
   25.4809   25.3780   45.1945 H   0  0  0  0  0  0  0  0  0  0  0  0
   26.2348   26.9484   44.6760 H   0  0  0  0  0  0  0  0  0  0  0  0
   24.2394   25.1950   43.2604 H   0  0  0  0  0  0  0  0  0  0  0  0
   24.3978   27.0336   43.3945 H   0  0  0  0  0  0  0  0  0  0  0  0
   26.3478   23.1570   39.2100 H   0  0  0  0  0  0  0  0  0  0  0  0
   26.0204   23.3552   36.7456 H   0  0  0  0  0  0  0  0  0  0  0  0
   22.6212   28.5945   34.1867 H   0  0  0  0  0  0  0  0  0  0  0  0
   21.2030   29.3070   30.9280 H   0  0  0  0  0  0  0  0  0  0  0  0
   20.0373   33.4897   36.0765 H   0  0  0  0  0  0  0  0  0  0  0  0
   21.0372   34.3207   38.2229 H   0  0  0  0  0  0  0  0  0  0  0  0
   23.0779   33.2435   39.0969 H   0  0  0  0  0  0  0  0  0  0  0  0
   23.1824   30.5781   35.8515 H   0  0  0  0  0  0  0  0  0  0  0  0
   18.9945   32.2541   34.5301 H   0  0  0  0  0  0  0  0  0  0  0  0
  1  2  1  0
  2  3  2  0
  3  4  1  0
  4  5  2  0
  5  6  1  0
  6  7  1  0
  7  8  2  0
  7  9  1  0
  9 10  2  0
 10 11  1  0
 11 12  2  0
 12 13  1  0
 13 14  1  0
 14 15  1  0
 15 16  1  0
 16 17  1  0
 17 18  1  0
 17 19  1  0
 19 20  1  0
 12 21  1  0
 21 22  2  0
  5 23  1  0
 23 24  2  0
 24 25  1  0
 25 26  1  0
 26 27  2  0
 27 28  1  0
 28 29  1  0
 29 30  2  0
 30 31  1  0
 31 32  2  0
 32 33  1  0
 33 34  2  0
 28 35  2  0
 35 36  1  0
 24  2  1  0
 36 26  1  0
 22  9  1  0
 34 29  1  0
 20 14  1  0
  1 37  1  0
  1 38  1  0
  1 39  1  0
  3 40  1  0
  4 41  1  0
  6 42  1  0
 10 43  1  0
 11 44  1  0
 13 45  1  0
 13 46  1  0
 15 47  1  0
 15 48  1  0
 16 49  1  0
 16 50  1  0
 18 51  1  0
 18 52  1  0
 18 53  1  0
 19 54  1  0
 19 55  1  0
 20 56  1  0
 20 57  1  0
 21 58  1  0
 22 59  1  0
 23 60  1  0
 25 61  1  0
 30 62  1  0
 31 63  1  0
 32 64  1  0
 34 65  1  0
 35 66  1  0
M  END
>  <meeko>  (3) 
{"is_sidechain": [false], "free_energy": -10.311, "intermolecular_energy": -14.547, "internal_energy": -0.323}

$$$$
docked_poses
     RDKit          3D

 66 70  0  0  0  0  0  0  0  0999 V2000
   22.7120   26.8880   42.6240 C   0  0  0  0  0  0  0  0  0  0  0  0
   24.1100   26.6500   43.1260 C   0  0  0  0  0  0  0  0  0  0  0  0
   24.3120   26.3840   44.4860 C   0  0  0  0  0  0  0  0  0  0  0  0
   25.5980   26.1600   44.9830 C   0  0  0  0  0  0  0  0  0  0  0  0
   26.7080   26.1930   44.1340 C   0  0  0  0  0  0  0  0  0  0  0  0
   27.9720   25.9700   44.7210 N   0  0  0  0  0  0  0  0  0  0  0  0
   28.4890   24.7670   45.1650 C   0  0  0  0  0  0  0  0  0  0  0  0
   27.9630   23.6640   45.0830 O   0  0  0  0  0  0  0  0  0  0  0  0
   29.8550   24.8610   45.7530 C   0  0  0  0  0  0  0  0  0  0  0  0
   30.4370   23.7050   46.2810 C   0  0  0  0  0  0  0  0  0  0  0  0
   31.7230   23.7540   46.8210 C   0  0  0  0  0  0  0  0  0  0  0  0
   32.4420   24.9590   46.8480 C   0  0  0  0  0  0  0  0  0  0  0  0
   33.8340   25.0130   47.4520 C   0  0  0  0  0  0  0  0  0  0  0  0
   33.8780   25.7800   48.7110 N   0  0  0  0  0  0  0  0  0  0  0  0
   35.1720   26.4730   48.8470 C   0  0  0  0  0  0  0  0  0  0  0  0
   36.4030   25.5550   49.0870 C   0  0  0  0  0  0  0  0  0  0  0  0
   36.0810   24.2600   49.7170 N   0  0  0  0  0  0  0  0  0  0  0  0
   37.2430   23.6960   50.3940 C   0  0  0  0  0  0  0  0  0  0  0  0
   34.9380   24.4100   50.6250 C   0  0  0  0  0  0  0  0  0  0  0  0
   33.6620   24.9070   49.8910 C   0  0  0  0  0  0  0  0  0  0  0  0
   31.8390   26.1210   46.3430 C   0  0  0  0  0  0  0  0  0  0  0  0
   30.5530   26.0750   45.7980 C   0  0  0  0  0  0  0  0  0  0  0  0
   26.5070   26.4300   42.7740 C   0  0  0  0  0  0  0  0  0  0  0  0
   25.2170   26.6550   42.2580 C   0  0  0  0  0  0  0  0  0  0  0  0
   25.0490   26.8750   40.8700 N   0  0  0  0  0  0  0  0  0  0  0  0
   25.1500   25.8860   39.9390 C   0  0  0  0  0  0  0  0  0  0  0  0
   25.0900   26.1530   38.6520 N   0  0  0  0  0  0  0  0  0  0  0  0
   25.1890   25.0010   37.8860 C   0  0  0  0  0  0  0  0  0  0  0  0
   25.1310   25.0670   36.4290 C   0  0  0  0  0  0  0  0  0  0  0  0
   24.0290   25.5620   35.7230 C   0  0  0  0  0  0  0  0  0  0  0  0
   24.0550   25.6020   34.3270 C   0  0  0  0  0  0  0  0  0  0  0  0
   25.1860   25.1440   33.6730 C   0  0  0  0  0  0  0  0  0  0  0  0
   26.2690   24.6590   34.3110 N   0  0  0  0  0  0  0  0  0  0  0  0
   26.2160   24.6330   35.6690 C   0  0  0  0  0  0  0  0  0  0  0  0
   25.3400   23.8440   38.6240 C   0  0  0  0  0  0  0  0  0  0  0  0
   25.3380   24.2060   40.2980 S   0  0  0  0  0  0  0  0  0  0  0  0
   22.0301   27.0041   43.4793 H   0  0  0  0  0  0  0  0  0  0  0  0
   22.6926   27.8024   42.0128 H   0  0  0  0  0  0  0  0  0  0  0  0
   22.3911   26.0316   42.0128 H   0  0  0  0  0  0  0  0  0  0  0  0
   23.4503   26.3512   45.1689 H   0  0  0  0  0  0  0  0  0  0  0  0
   25.7389   25.9553   46.0546 H   0  0  0  0  0  0  0  0  0  0  0  0
   28.5970   26.7640   44.7320 H   0  0  0  0  0  0  0  0  0  0  0  0
   29.8810   22.7559   46.2709 H   0  0  0  0  0  0  0  0  0  0  0  0
   32.1775   22.8393   47.2294 H   0  0  0  0  0  0  0  0  0  0  0  0
   34.1703   23.9853   47.6539 H   0  0  0  0  0  0  0  0  0  0  0  0
   34.4903   25.5209   46.7300 H   0  0  0  0  0  0  0  0  0  0  0  0
   35.3496   27.0427   47.9230 H   0  0  0  0  0  0  0  0  0  0  0  0
   35.0845   27.1005   49.7462 H   0  0  0  0  0  0  0  0  0  0  0  0
   36.8794   25.3566   48.1156 H   0  0  0  0  0  0  0  0  0  0  0  0
   37.0633   26.0897   49.7856 H   0  0  0  0  0  0  0  0  0  0  0  0
   37.1020   23.7644   51.4828 H   0  0  0  0  0  0  0  0  0  0  0  0
   37.3596   22.6411   50.1049 H   0  0  0  0  0  0  0  0  0  0  0  0
   38.1439   24.2571   50.1049 H   0  0  0  0  0  0  0  0  0  0  0  0
   34.7231   23.4351   51.0869 H   0  0  0  0  0  0  0  0  0  0  0  0
   35.2057   25.1629   51.3809 H   0  0  0  0  0  0  0  0  0  0  0  0
   33.1031   24.0214   49.5544 H   0  0  0  0  0  0  0  0  0  0  0  0
   33.1282   25.5312   50.6227 H   0  0  0  0  0  0  0  0  0  0  0  0
   32.3832   27.0764   46.3764 H   0  0  0  0  0  0  0  0  0  0  0  0
   30.0890   26.9915   45.4045 H   0  0  0  0  0  0  0  0  0  0  0  0
   27.3712   26.4412   42.0935 H   0  0  0  0  0  0  0  0  0  0  0  0
   25.5640   27.6990   40.5710 H   0  0  0  0  0  0  0  0  0  0  0  0
   23.1424   25.9195   36.2672 H   0  0  0  0  0  0  0  0  0  0  0  0
   23.1957   25.9889   33.7597 H   0  0  0  0  0  0  0  0  0  0  0  0
   25.2012   25.1779   32.5736 H   0  0  0  0  0  0  0  0  0  0  0  0
   27.0921   24.2414   36.2068 H   0  0  0  0  0  0  0  0  0  0  0  0
   25.4463   22.8353   38.1983 H   0  0  0  0  0  0  0  0  0  0  0  0
  1  2  1  0
  2  3  2  0
  3  4  1  0
  4  5  2  0
  5  6  1  0
  6  7  1  0
  7  8  2  0
  7  9  1  0
  9 10  2  0
 10 11  1  0
 11 12  2  0
 12 13  1  0
 13 14  1  0
 14 15  1  0
 15 16  1  0
 16 17  1  0
 17 18  1  0
 17 19  1  0
 19 20  1  0
 12 21  1  0
 21 22  2  0
  5 23  1  0
 23 24  2  0
 24 25  1  0
 25 26  1  0
 26 27  2  0
 27 28  1  0
 28 29  1  0
 29 30  2  0
 30 31  1  0
 31 32  2  0
 32 33  1  0
 33 34  2  0
 28 35  2  0
 35 36  1  0
 24  2  1  0
 36 26  1  0
 22  9  1  0
 34 29  1  0
 20 14  1  0
  1 37  1  0
  1 38  1  0
  1 39  1  0
  3 40  1  0
  4 41  1  0
  6 42  1  0
 10 43  1  0
 11 44  1  0
 13 45  1  0
 13 46  1  0
 15 47  1  0
 15 48  1  0
 16 49  1  0
 16 50  1  0
 18 51  1  0
 18 52  1  0
 18 53  1  0
 19 54  1  0
 19 55  1  0
 20 56  1  0
 20 57  1  0
 21 58  1  0
 22 59  1  0
 23 60  1  0
 25 61  1  0
 30 62  1  0
 31 63  1  0
 32 64  1  0
 34 65  1  0
 35 66  1  0
M  END
>  <meeko>  (4) 
{"is_sidechain": [false], "free_energy": -10.196, "intermolecular_energy": -13.801, "internal_energy": -0.907}

$$$$
docked_poses
     RDKit          3D

 66 70  0  0  0  0  0  0  0  0999 V2000
   30.1980   22.7700   46.9750 C   0  0  0  0  0  0  0  0  0  0  0  0
   31.0150   24.0260   46.8400 C   0  0  0  0  0  0  0  0  0  0  0  0
   32.4040   23.9600   47.0050 C   0  0  0  0  0  0  0  0  0  0  0  0
   33.1900   25.1080   46.8870 C   0  0  0  0  0  0  0  0  0  0  0  0
   32.6070   26.3470   46.5990 C   0  0  0  0  0  0  0  0  0  0  0  0
   33.4720   27.4580   46.5120 N   0  0  0  0  0  0  0  0  0  0  0  0
   34.8440   27.4680   46.6890 C   0  0  0  0  0  0  0  0  0  0  0  0
   35.5660   26.5030   46.9040 O   0  0  0  0  0  0  0  0  0  0  0  0
   35.4760   28.8100   46.5430 C   0  0  0  0  0  0  0  0  0  0  0  0
   35.3470   29.4810   45.3230 C   0  0  0  0  0  0  0  0  0  0  0  0
   35.9100   30.7470   45.1600 C   0  0  0  0  0  0  0  0  0  0  0  0
   36.6160   31.3570   46.2080 C   0  0  0  0  0  0  0  0  0  0  0  0
   37.2420   32.7270   46.0210 C   0  0  0  0  0  0  0  0  0  0  0  0
   36.5060   33.7910   46.7280 N   0  0  0  0  0  0  0  0  0  0  0  0
   35.1270   33.8930   46.2140 C   0  0  0  0  0  0  0  0  0  0  0  0
   34.9900   34.4340   44.7650 C   0  0  0  0  0  0  0  0  0  0  0  0
   36.1060   35.2950   44.3290 N   0  0  0  0  0  0  0  0  0  0  0  0
   35.7010   36.1800   43.2430 C   0  0  0  0  0  0  0  0  0  0  0  0
   36.6440   36.0420   45.4730 C   0  0  0  0  0  0  0  0  0  0  0  0
   37.1790   35.1050   46.5910 C   0  0  0  0  0  0  0  0  0  0  0  0
   36.7670   30.6650   47.4190 C   0  0  0  0  0  0  0  0  0  0  0  0
   36.2000   29.3970   47.5880 C   0  0  0  0  0  0  0  0  0  0  0  0
   31.2270   26.4110   46.4070 C   0  0  0  0  0  0  0  0  0  0  0  0
   30.4230   25.2620   46.5200 C   0  0  0  0  0  0  0  0  0  0  0  0
   29.0280   25.3620   46.3010 N   0  0  0  0  0  0  0  0  0  0  0  0
   28.4850   25.8040   45.1340 C   0  0  0  0  0  0  0  0  0  0  0  0
   27.1870   25.7450   44.9200 N   0  0  0  0  0  0  0  0  0  0  0  0
   26.8550   26.2240   43.6620 C   0  0  0  0  0  0  0  0  0  0  0  0
   25.4660   26.2350   43.2120 C   0  0  0  0  0  0  0  0  0  0  0  0
   25.0840   26.0450   41.8800 C   0  0  0  0  0  0  0  0  0  0  0  0
   23.7320   26.0590   41.5310 C   0  0  0  0  0  0  0  0  0  0  0  0
   22.7950   26.2650   42.5290 C   0  0  0  0  0  0  0  0  0  0  0  0
   23.1150   26.4530   43.8240 N   0  0  0  0  0  0  0  0  0  0  0  0
   24.4380   26.4330   44.1340 C   0  0  0  0  0  0  0  0  0  0  0  0
   27.9330   26.6650   42.9220 C   0  0  0  0  0  0  0  0  0  0  0  0
   29.3830   26.4560   43.8100 S   0  0  0  0  0  0  0  0  0  0  0  0
   30.0496   22.5419   48.0408 H   0  0  0  0  0  0  0  0  0  0  0  0
   29.2206   22.9146   46.4914 H   0  0  0  0  0  0  0  0  0  0  0  0
   30.7264   21.9351   46.4914 H   0  0  0  0  0  0  0  0  0  0  0  0
   32.8805   22.9944   47.2298 H   0  0  0  0  0  0  0  0  0  0  0  0
   34.2794   25.0376   47.0219 H   0  0  0  0  0  0  0  0  0  0  0  0
   33.0490   28.3200   46.1970 H   0  0  0  0  0  0  0  0  0  0  0  0
   34.8015   29.0106   44.4917 H   0  0  0  0  0  0  0  0  0  0  0  0
   35.7993   31.2724   44.2000 H   0  0  0  0  0  0  0  0  0  0  0  0
   38.2727   32.6980   46.4041 H   0  0  0  0  0  0  0  0  0  0  0  0
   37.2133   32.9612   44.9466 H   0  0  0  0  0  0  0  0  0  0  0  0
   34.6793   32.8887   46.2441 H   0  0  0  0  0  0  0  0  0  0  0  0
   34.6189   34.6256   46.8583 H   0  0  0  0  0  0  0  0  0  0  0  0
   34.9306   33.5747   44.0809 H   0  0  0  0  0  0  0  0  0  0  0  0
   34.0850   35.0591   44.7470 H   0  0  0  0  0  0  0  0  0  0  0  0
   35.2778   37.1048   43.6621 H   0  0  0  0  0  0  0  0  0  0  0  0
   36.5766   36.4251   42.6239 H   0  0  0  0  0  0  0  0  0  0  0  0
   34.9432   35.6776   42.6239 H   0  0  0  0  0  0  0  0  0  0  0  0
   37.4682   36.6805   45.1223 H   0  0  0  0  0  0  0  0  0  0  0  0
   35.8251   36.6403   45.8990 H   0  0  0  0  0  0  0  0  0  0  0  0
   38.2436   34.9162   46.3885 H   0  0  0  0  0  0  0  0  0  0  0  0
   36.9817   35.6342   47.5350 H   0  0  0  0  0  0  0  0  0  0  0  0
   37.3355   31.1228   48.2420 H   0  0  0  0  0  0  0  0  0  0  0  0
   36.3229   28.8617   48.5411 H   0  0  0  0  0  0  0  0  0  0  0  0
   30.7593   27.3763   46.1631 H   0  0  0  0  0  0  0  0  0  0  0  0
   28.5690   25.7990   47.0960 H   0  0  0  0  0  0  0  0  0  0  0  0
   25.8494   25.8844   41.1065 H   0  0  0  0  0  0  0  0  0  0  0  0
   23.4187   25.9098   40.4872 H   0  0  0  0  0  0  0  0  0  0  0  0
   21.7312   26.2758   42.2493 H   0  0  0  0  0  0  0  0  0  0  0  0
   24.7182   26.5837   45.1870 H   0  0  0  0  0  0  0  0  0  0  0  0
   27.8704   27.0892   41.9090 H   0  0  0  0  0  0  0  0  0  0  0  0
  1  2  1  0
  2  3  2  0
  3  4  1  0
  4  5  2  0
  5  6  1  0
  6  7  1  0
  7  8  2  0
  7  9  1  0
  9 10  2  0
 10 11  1  0
 11 12  2  0
 12 13  1  0
 13 14  1  0
 14 15  1  0
 15 16  1  0
 16 17  1  0
 17 18  1  0
 17 19  1  0
 19 20  1  0
 12 21  1  0
 21 22  2  0
  5 23  1  0
 23 24  2  0
 24 25  1  0
 25 26  1  0
 26 27  2  0
 27 28  1  0
 28 29  1  0
 29 30  2  0
 30 31  1  0
 31 32  2  0
 32 33  1  0
 33 34  2  0
 28 35  2  0
 35 36  1  0
 24  2  1  0
 36 26  1  0
 22  9  1  0
 34 29  1  0
 20 14  1  0
  1 37  1  0
  1 38  1  0
  1 39  1  0
  3 40  1  0
  4 41  1  0
  6 42  1  0
 10 43  1  0
 11 44  1  0
 13 45  1  0
 13 46  1  0
 15 47  1  0
 15 48  1  0
 16 49  1  0
 16 50  1  0
 18 51  1  0
 18 52  1  0
 18 53  1  0
 19 54  1  0
 19 55  1  0
 20 56  1  0
 20 57  1  0
 21 58  1  0
 22 59  1  0
 23 60  1  0
 25 61  1  0
 30 62  1  0
 31 63  1  0
 32 64  1  0
 34 65  1  0
 35 66  1  0
M  END
>  <meeko>  (5) 
{"is_sidechain": [false], "free_energy": -10.167, "intermolecular_energy": -14.798, "internal_energy": 0.131}

$$$$
docked_poses
     RDKit          3D

 66 70  0  0  0  0  0  0  0  0999 V2000
   21.6050   27.5060   29.4340 C   0  0  0  0  0  0  0  0  0  0  0  0
   22.1150   27.2580   30.8270 C   0  0  0  0  0  0  0  0  0  0  0  0
   22.5780   25.9810   31.1690 C   0  0  0  0  0  0  0  0  0  0  0  0
   23.0560   25.7180   32.4550 C   0  0  0  0  0  0  0  0  0  0  0  0
   23.0860   26.7250   33.4250 C   0  0  0  0  0  0  0  0  0  0  0  0
   23.5710   26.3700   34.7020 N   0  0  0  0  0  0  0  0  0  0  0  0
   24.3590   25.2800   35.0270 C   0  0  0  0  0  0  0  0  0  0  0  0
   24.8240   24.4510   34.2540 O   0  0  0  0  0  0  0  0  0  0  0  0
   24.6980   25.1720   36.4730 C   0  0  0  0  0  0  0  0  0  0  0  0
   24.2260   26.1560   37.3460 C   0  0  0  0  0  0  0  0  0  0  0  0
   24.5080   26.0730   38.7110 C   0  0  0  0  0  0  0  0  0  0  0  0
   25.2730   25.0120   39.2200 C   0  0  0  0  0  0  0  0  0  0  0  0
   25.5940   24.9350   40.7020 C   0  0  0  0  0  0  0  0  0  0  0  0
   25.4300   26.2310   41.3870 N   0  0  0  0  0  0  0  0  0  0  0  0
   26.7450   26.8400   41.6580 C   0  0  0  0  0  0  0  0  0  0  0  0
   27.6130   26.1180   42.7240 C   0  0  0  0  0  0  0  0  0  0  0  0
   26.8400   25.3350   43.7070 N   0  0  0  0  0  0  0  0  0  0  0  0
   27.5930   25.1400   44.9420 C   0  0  0  0  0  0  0  0  0  0  0  0
   25.5410   25.9730   43.9530 C   0  0  0  0  0  0  0  0  0  0  0  0
   24.6850   26.0850   42.6610 C   0  0  0  0  0  0  0  0  0  0  0  0
   25.7680   24.0440   38.3330 C   0  0  0  0  0  0  0  0  0  0  0  0
   25.4840   24.1220   36.9660 C   0  0  0  0  0  0  0  0  0  0  0  0
   22.6530   28.0050   33.0800 C   0  0  0  0  0  0  0  0  0  0  0  0
   22.1700   28.2850   31.7880 C   0  0  0  0  0  0  0  0  0  0  0  0
   21.7550   29.6000   31.4680 N   0  0  0  0  0  0  0  0  0  0  0  0
   22.2700   30.7110   32.0610 C   0  0  0  0  0  0  0  0  0  0  0  0
   23.4690   31.1570   31.7490 N   0  0  0  0  0  0  0  0  0  0  0  0
   23.8030   32.2820   32.4880 C   0  0  0  0  0  0  0  0  0  0  0  0
   25.0980   32.9320   32.3110 C   0  0  0  0  0  0  0  0  0  0  0  0
   26.2840   32.4590   32.8830 C   0  0  0  0  0  0  0  0  0  0  0  0
   27.4870   33.1320   32.6560 C   0  0  0  0  0  0  0  0  0  0  0  0
   27.4700   34.2650   31.8610 C   0  0  0  0  0  0  0  0  0  0  0  0
   26.3530   34.7580   31.2910 N   0  0  0  0  0  0  0  0  0  0  0  0
   25.1990   34.0820   31.5280 C   0  0  0  0  0  0  0  0  0  0  0  0
   22.8210   32.6940   33.3660 C   0  0  0  0  0  0  0  0  0  0  0  0
   21.4710   31.6440   33.2760 S   0  0  0  0  0  0  0  0  0  0  0  0
   20.6168   27.9865   29.4854 H   0  0  0  0  0  0  0  0  0  0  0  0
   22.3053   28.1641   28.8989 H   0  0  0  0  0  0  0  0  0  0  0  0
   21.5198   26.5487   28.8989 H   0  0  0  0  0  0  0  0  0  0  0  0
   22.5651   25.1776   30.4178 H   0  0  0  0  0  0  0  0  0  0  0  0
   23.4125   24.7084   32.7073 H   0  0  0  0  0  0  0  0  0  0  0  0
   23.3940   27.0370   35.4400 H   0  0  0  0  0  0  0  0  0  0  0  0
   23.6320   26.9964   36.9575 H   0  0  0  0  0  0  0  0  0  0  0  0
   24.1270   26.8465   39.3940 H   0  0  0  0  0  0  0  0  0  0  0  0
   24.9212   24.2016   41.1704 H   0  0  0  0  0  0  0  0  0  0  0  0
   26.6488   24.6385   40.7990 H   0  0  0  0  0  0  0  0  0  0  0  0
   27.3112   26.8559   40.7150 H   0  0  0  0  0  0  0  0  0  0  0  0
   26.5348   27.8388   42.0680 H   0  0  0  0  0  0  0  0  0  0  0  0
   28.3006   25.4351   42.2035 H   0  0  0  0  0  0  0  0  0  0  0  0
   28.1368   26.9034   43.2885 H   0  0  0  0  0  0  0  0  0  0  0  0
   26.9326   25.3110   45.8050 H   0  0  0  0  0  0  0  0  0  0  0  0
   27.9818   24.1115   44.9759 H   0  0  0  0  0  0  0  0  0  0  0  0
   28.4321   25.8505   44.9759 H   0  0  0  0  0  0  0  0  0  0  0  0
   24.9881   25.3758   44.6930 H   0  0  0  0  0  0  0  0  0  0  0  0
   25.7309   26.9923   44.3203 H   0  0  0  0  0  0  0  0  0  0  0  0
   24.0703   25.1758   42.5869 H   0  0  0  0  0  0  0  0  0  0  0  0
   24.1097   27.0161   42.7714 H   0  0  0  0  0  0  0  0  0  0  0  0
   26.3843   23.2173   38.7160 H   0  0  0  0  0  0  0  0  0  0  0  0
   25.8775   23.3593   36.2779 H   0  0  0  0  0  0  0  0  0  0  0  0
   22.6896   28.8089   33.8299 H   0  0  0  0  0  0  0  0  0  0  0  0
   20.7410   29.6570   31.4250 H   0  0  0  0  0  0  0  0  0  0  0  0
   26.2692   31.5566   33.5119 H   0  0  0  0  0  0  0  0  0  0  0  0
   28.4264   32.7698   33.0990 H   0  0  0  0  0  0  0  0  0  0  0  0
   28.4197   34.7914   31.6850 H   0  0  0  0  0  0  0  0  0  0  0  0
   24.2773   34.4694   31.0693 H   0  0  0  0  0  0  0  0  0  0  0  0
   22.8947   33.5697   34.0276 H   0  0  0  0  0  0  0  0  0  0  0  0
  1  2  1  0
  2  3  2  0
  3  4  1  0
  4  5  2  0
  5  6  1  0
  6  7  1  0
  7  8  2  0
  7  9  1  0
  9 10  2  0
 10 11  1  0
 11 12  2  0
 12 13  1  0
 13 14  1  0
 14 15  1  0
 15 16  1  0
 16 17  1  0
 17 18  1  0
 17 19  1  0
 19 20  1  0
 12 21  1  0
 21 22  2  0
  5 23  1  0
 23 24  2  0
 24 25  1  0
 25 26  1  0
 26 27  2  0
 27 28  1  0
 28 29  1  0
 29 30  2  0
 30 31  1  0
 31 32  2  0
 32 33  1  0
 33 34  2  0
 28 35  2  0
 35 36  1  0
 24  2  1  0
 36 26  1  0
 22  9  1  0
 34 29  1  0
 20 14  1  0
  1 37  1  0
  1 38  1  0
  1 39  1  0
  3 40  1  0
  4 41  1  0
  6 42  1  0
 10 43  1  0
 11 44  1  0
 13 45  1  0
 13 46  1  0
 15 47  1  0
 15 48  1  0
 16 49  1  0
 16 50  1  0
 18 51  1  0
 18 52  1  0
 18 53  1  0
 19 54  1  0
 19 55  1  0
 20 56  1  0
 20 57  1  0
 21 58  1  0
 22 59  1  0
 23 60  1  0
 25 61  1  0
 30 62  1  0
 31 63  1  0
 32 64  1  0
 34 65  1  0
 35 66  1  0
M  END
>  <meeko>  (6) 
{"is_sidechain": [false], "free_energy": -10.061, "intermolecular_energy": -13.943, "internal_energy": -0.574}

$$$$
