BACE1_verubecestat__alternate_457_seed4409_ex32__pose01
     RDKit          3D

 45 47  0  0  0  0  0  0  0  0999 V2000
   27.8370   12.7110   23.6280 C   0  0  0  0  0  0  0  0  0  0  0  0
   26.9530   13.1950   22.5480 N   0  0  0  0  0  0  0  0  0  0  0  0
   26.0600   14.2770   22.7110 C   0  0  0  0  0  0  0  0  0  0  0  0
   26.1950   14.9340   23.9050 N   0  0  0  0  0  0  0  0  0  0  0  0
   25.2010   14.6460   21.8110 N   0  0  0  0  0  0  0  0  0  0  0  0
   25.0010   13.8800   20.5820 C   0  0  2  0  0  0  0  0  0  0  0  0
   24.3050   14.8870   19.6610 C   0  0  0  0  0  0  0  0  0  0  0  0
   24.0790   12.6900   20.7950 C   0  0  0  0  0  0  0  0  0  0  0  0
   23.5500   12.4050   22.0530 C   0  0  0  0  0  0  0  0  0  0  0  0
   22.7150   11.3330   22.2750 C   0  0  0  0  0  0  0  0  0  0  0  0
   22.2520   11.1600   23.5860 N   0  0  0  0  0  0  0  0  0  0  0  0
   22.9500   11.3150   24.7700 C   0  0  0  0  0  0  0  0  0  0  0  0
   24.1560   11.5110   24.8560 O   0  0  0  0  0  0  0  0  0  0  0  0
   22.1270   11.2670   26.0020 C   0  0  0  0  0  0  0  0  0  0  0  0
   20.9210   10.5870   26.0010 C   0  0  0  0  0  0  0  0  0  0  0  0
   20.1920   10.5760   27.1770 C   0  0  0  0  0  0  0  0  0  0  0  0
   20.6800   11.2260   28.2950 C   0  0  0  0  0  0  0  0  0  0  0  0
   20.0040   11.2500   29.4560 F   0  0  0  0  0  0  0  0  0  0  0  0
   21.8870   11.8800   28.1950 C   0  0  0  0  0  0  0  0  0  0  0  0
   22.6140   11.9130   27.0660 N   0  0  0  0  0  0  0  0  0  0  0  0
   22.3490   10.4980   21.2270 C   0  0  0  0  0  0  0  0  0  0  0  0
   22.8660   10.7640   19.9720 C   0  0  0  0  0  0  0  0  0  0  0  0
   23.7280   11.8240   19.7700 C   0  0  0  0  0  0  0  0  0  0  0  0
   24.2460   12.0460   18.5350 F   0  0  0  0  0  0  0  0  0  0  0  0
   26.3360   13.5520   19.9510 C   0  0  0  0  0  0  0  0  0  0  0  0
   27.2870   12.4940   21.0120 S   0  0  0  0  0  0  0  0  0  0  0  0
   28.6840   12.7570   20.7140 O   0  0  0  0  0  0  0  0  0  0  0  0
   26.7170   11.1860   21.1010 O   0  0  0  0  0  0  0  0  0  0  0  0
   27.3913   12.9550   24.6036 H   0  0  0  0  0  0  0  0  0  0  0  0
   27.9576   11.6210   23.5423 H   0  0  0  0  0  0  0  0  0  0  0  0
   28.8203   13.1966   23.5423 H   0  0  0  0  0  0  0  0  0  0  0  0
   25.6170   15.7040   24.1110 H   0  0  0  0  0  0  0  0  0  0  0  0
   26.8710   14.6370   24.5570 H   0  0  0  0  0  0  0  0  0  0  0  0
   23.7839   15.6410   20.2693 H   0  0  0  0  0  0  0  0  0  0  0  0
   25.0545   15.3822   19.0262 H   0  0  0  0  0  0  0  0  0  0  0  0
   23.5768   14.3609   19.0262 H   0  0  0  0  0  0  0  0  0  0  0  0
   23.8089   13.0598   22.8981 H   0  0  0  0  0  0  0  0  0  0  0  0
   21.3080   10.8940   23.6750 H   0  0  0  0  0  0  0  0  0  0  0  0
   20.5559   10.0745   25.0988 H   0  0  0  0  0  0  0  0  0  0  0  0
   19.2263   10.0512   27.2221 H   0  0  0  0  0  0  0  0  0  0  0  0
   22.2751   12.4009   29.0827 H   0  0  0  0  0  0  0  0  0  0  0  0
   21.6678    9.6499   21.3904 H   0  0  0  0  0  0  0  0  0  0  0  0
   22.5868   10.1225   19.1232 H   0  0  0  0  0  0  0  0  0  0  0  0
   26.1664   13.0427   18.9909 H   0  0  0  0  0  0  0  0  0  0  0  0
   26.8924   14.4877   19.7931 H   0  0  0  0  0  0  0  0  0  0  0  0
  1  2  1  0
  2  3  1  0
  3  4  1  0
  3  5  2  0
  5  6  1  0
  6  7  1  6
  6  8  1  0
  8  9  2  0
  9 10  1  0
 10 11  1  0
 11 12  1  0
 12 13  2  0
 12 14  1  0
 14 15  2  0
 15 16  1  0
 16 17  2  0
 17 18  1  0
 17 19  1  0
 19 20  2  0
 10 21  2  0
 21 22  1  0
 22 23  2  0
 23 24  1  0
  6 25  1  0
 25 26  1  0
 26 27  2  0
 26 28  2  0
 26  2  1  0
 23  8  1  0
 20 14  1  0
  1 29  1  0
  1 30  1  0
  1 31  1  0
  4 32  1  0
  4 33  1  0
  7 34  1  0
  7 35  1  0
  7 36  1  0
  9 37  1  0
 11 38  1  0
 15 39  1  0
 16 40  1  0
 19 41  1  0
 21 42  1  0
 22 43  1  0
 25 44  1  0
 25 45  1  0
M  END
>  <meeko>  (1)
{"is_sidechain": false}

>  <source_group>  (1)
BACE1-457

>  <source_system>  (1)
BACE1_verubecestat

>  <source_run>  (1)
alternate_457_seed4409_ex32

>  <source_seed>  (1)
4409

>  <vina_pose_rank>  (1)
1

>  <vina_affinity_kcal_mol>  (1)
-8.2840000000000007

>  <vina_rmsd_to_crystal_angstrom>  (1)
7.0205000000000002

$$$$
BACE1_verubecestat__alternate_457_seed4409_ex32__pose02
     RDKit          3D

 45 47  0  0  0  0  0  0  0  0999 V2000
   28.2830    9.7170   21.0920 C   0  0  0  0  0  0  0  0  0  0  0  0
   27.8950   11.1300   20.9100 N   0  0  0  0  0  0  0  0  0  0  0  0
   27.9360   12.0810   21.9550 C   0  0  0  0  0  0  0  0  0  0  0  0
   28.5100   11.6150   23.1070 N   0  0  0  0  0  0  0  0  0  0  0  0
   27.4970   13.2960   21.8420 N   0  0  0  0  0  0  0  0  0  0  0  0
   26.8010   13.7530   20.6400 C   0  0  2  0  0  0  0  0  0  0  0  0
   26.9020   15.2770   20.7440 C   0  0  0  0  0  0  0  0  0  0  0  0
   25.3330   13.3570   20.6460 C   0  0  0  0  0  0  0  0  0  0  0  0
   24.7470   12.7800   21.7710 C   0  0  0  0  0  0  0  0  0  0  0  0
   23.4220   12.4090   21.8040 C   0  0  0  0  0  0  0  0  0  0  0  0
   22.9580   11.8410   22.9980 N   0  0  0  0  0  0  0  0  0  0  0  0
   22.4410   12.4850   24.1080 C   0  0  0  0  0  0  0  0  0  0  0  0
   22.4260   13.6970   24.2770 O   0  0  0  0  0  0  0  0  0  0  0  0
   21.8390   11.5960   25.1320 C   0  0  0  0  0  0  0  0  0  0  0  0
   21.7910   10.2290   24.9180 C   0  0  0  0  0  0  0  0  0  0  0  0
   21.2170    9.4480   25.9050 C   0  0  0  0  0  0  0  0  0  0  0  0
   20.7220   10.0400   27.0510 C   0  0  0  0  0  0  0  0  0  0  0  0
   20.1470    9.3230   28.0310 F   0  0  0  0  0  0  0  0  0  0  0  0
   20.8100   11.4090   27.1690 C   0  0  0  0  0  0  0  0  0  0  0  0
   21.3570   12.1940   26.2260 N   0  0  0  0  0  0  0  0  0  0  0  0
   22.6050   12.6240   20.7010 C   0  0  0  0  0  0  0  0  0  0  0  0
   23.1700   13.1930   19.5740 C   0  0  0  0  0  0  0  0  0  0  0  0
   24.5080   13.5300   19.5450 C   0  0  0  0  0  0  0  0  0  0  0  0
   25.0450   14.0600   18.4160 F   0  0  0  0  0  0  0  0  0  0  0  0
   27.5710   13.3410   19.4050 C   0  0  0  0  0  0  0  0  0  0  0  0
   27.6340   11.5720   19.2670 S   0  0  0  0  0  0  0  0  0  0  0  0
   28.8490   11.2560   18.5390 O   0  0  0  0  0  0  0  0  0  0  0  0
   26.3500   11.0210   18.9650 O   0  0  0  0  0  0  0  0  0  0  0  0
   28.3455    9.4894   22.1664 H   0  0  0  0  0  0  0  0  0  0  0  0
   27.5302    9.0667   20.6226 H   0  0  0  0  0  0  0  0  0  0  0  0
   29.2624    9.5423   20.6226 H   0  0  0  0  0  0  0  0  0  0  0  0
   28.5850   12.2040   23.8920 H   0  0  0  0  0  0  0  0  0  0  0  0
   28.8490   10.6910   23.1500 H   0  0  0  0  0  0  0  0  0  0  0  0
   26.9215   15.5717   21.8036 H   0  0  0  0  0  0  0  0  0  0  0  0
   27.8247   15.6178   20.2516 H   0  0  0  0  0  0  0  0  0  0  0  0
   26.0323   15.7366   20.2516 H   0  0  0  0  0  0  0  0  0  0  0  0
   25.3660   12.6150   22.6652 H   0  0  0  0  0  0  0  0  0  0  0  0
   23.0050   10.8590   23.0530 H   0  0  0  0  0  0  0  0  0  0  0  0
   22.1941    9.7808   23.9979 H   0  0  0  0  0  0  0  0  0  0  0  0
   21.1548    8.3572   25.7776 H   0  0  0  0  0  0  0  0  0  0  0  0
   20.4134   11.8827   28.0791 H   0  0  0  0  0  0  0  0  0  0  0  0
   21.5400   12.3497   20.7234 H   0  0  0  0  0  0  0  0  0  0  0  0
   22.5443   13.3795   18.6887 H   0  0  0  0  0  0  0  0  0  0  0  0
   27.0748   13.7553   18.5150 H   0  0  0  0  0  0  0  0  0  0  0  0
   28.5982   13.7268   19.4831 H   0  0  0  0  0  0  0  0  0  0  0  0
  1  2  1  0
  2  3  1  0
  3  4  1  0
  3  5  2  0
  5  6  1  0
  6  7  1  1
  6  8  1  0
  8  9  2  0
  9 10  1  0
 10 11  1  0
 11 12  1  0
 12 13  2  0
 12 14  1  0
 14 15  2  0
 15 16  1  0
 16 17  2  0
 17 18  1  0
 17 19  1  0
 19 20  2  0
 10 21  2  0
 21 22  1  0
 22 23  2  0
 23 24  1  0
  6 25  1  0
 25 26  1  0
 26 27  2  0
 26 28  2  0
 26  2  1  0
 23  8  1  0
 20 14  1  0
  1 29  1  0
  1 30  1  0
  1 31  1  0
  4 32  1  0
  4 33  1  0
  7 34  1  0
  7 35  1  0
  7 36  1  0
  9 37  1  0
 11 38  1  0
 15 39  1  0
 16 40  1  0
 19 41  1  0
 21 42  1  0
 22 43  1  0
 25 44  1  0
 25 45  1  0
M  END
>  <meeko>  (2)
{"is_sidechain": false}

>  <source_group>  (2)
BACE1-457

>  <source_system>  (2)
BACE1_verubecestat

>  <source_run>  (2)
alternate_457_seed4409_ex32

>  <source_seed>  (2)
4409

>  <vina_pose_rank>  (2)
2

>  <vina_affinity_kcal_mol>  (2)
-8.0079999999999991

>  <vina_rmsd_to_crystal_angstrom>  (2)
7.2911000000000001

$$$$
BACE1_verubecestat__alternate_457_seed4409_ex32__pose03
     RDKit          3D

 45 47  0  0  0  0  0  0  0  0999 V2000
   22.7110    4.8510   19.1930 C   0  0  0  0  0  0  0  0  0  0  0  0
   22.1130    5.8810   18.3220 N   0  0  0  0  0  0  0  0  0  0  0  0
   21.9680    5.7200   16.9260 C   0  0  0  0  0  0  0  0  0  0  0  0
   22.2900    4.4680   16.4750 N   0  0  0  0  0  0  0  0  0  0  0  0
   21.5460    6.6550   16.1310 N   0  0  0  0  0  0  0  0  0  0  0  0
   21.2970    8.0140   16.6090 C   0  0  2  0  0  0  0  0  0  0  0  0
   20.4010    8.6030   15.5150 C   0  0  0  0  0  0  0  0  0  0  0  0
   22.5750    8.8340   16.6900 C   0  0  0  0  0  0  0  0  0  0  0  0
   23.7950    8.3100   16.2620 C   0  0  0  0  0  0  0  0  0  0  0  0
   24.9670    9.0280   16.3260 C   0  0  0  0  0  0  0  0  0  0  0  0
   26.1230    8.3870   15.8610 N   0  0  0  0  0  0  0  0  0  0  0  0
   27.3200    8.1880   16.5260 C   0  0  0  0  0  0  0  0  0  0  0  0
   27.6090    8.6700   17.6140 O   0  0  0  0  0  0  0  0  0  0  0  0
   28.2810    7.2880   15.8450 C   0  0  0  0  0  0  0  0  0  0  0  0
   27.8940    6.0080   15.4870 C   0  0  0  0  0  0  0  0  0  0  0  0
   28.8320    5.2100   14.8560 C   0  0  0  0  0  0  0  0  0  0  0  0
   30.0970    5.7040   14.6020 C   0  0  0  0  0  0  0  0  0  0  0  0
   31.0430    4.9630   14.0000 F   0  0  0  0  0  0  0  0  0  0  0  0
   30.3890    6.9880   15.0010 C   0  0  0  0  0  0  0  0  0  0  0  0
   29.5020    7.7840   15.6210 N   0  0  0  0  0  0  0  0  0  0  0  0
   24.9690   10.3310   16.8090 C   0  0  0  0  0  0  0  0  0  0  0  0
   23.7680   10.8660   17.2410 C   0  0  0  0  0  0  0  0  0  0  0  0
   22.6050   10.1220   17.2010 C   0  0  0  0  0  0  0  0  0  0  0  0
   21.4450   10.6600   17.6580 F   0  0  0  0  0  0  0  0  0  0  0  0
   20.4780    7.9760   17.8800 C   0  0  0  0  0  0  0  0  0  0  0  0
   21.3820    7.1800   19.1840 S   0  0  0  0  0  0  0  0  0  0  0  0
   20.3950    6.6000   20.0770 O   0  0  0  0  0  0  0  0  0  0  0  0
   22.4910    7.9710   19.6170 O   0  0  0  0  0  0  0  0  0  0  0  0
   22.5522    5.1245   20.2466 H   0  0  0  0  0  0  0  0  0  0  0  0
   22.2366    3.8794   18.9909 H   0  0  0  0  0  0  0  0  0  0  0  0
   23.7900    4.7813   18.9909 H   0  0  0  0  0  0  0  0  0  0  0  0
   22.2200    4.2570   15.5160 H   0  0  0  0  0  0  0  0  0  0  0  0
   22.5890    3.7780   17.1100 H   0  0  0  0  0  0  0  0  0  0  0  0
   19.5676    9.1508   15.9791 H   0  0  0  0  0  0  0  0  0  0  0  0
   20.9893    9.2911   14.8902 H   0  0  0  0  0  0  0  0  0  0  0  0
   20.0026    7.7901   14.8902 H   0  0  0  0  0  0  0  0  0  0  0  0
   23.8209    7.2867   15.8592 H   0  0  0  0  0  0  0  0  0  0  0  0
   26.0760    8.0310   14.9440 H   0  0  0  0  0  0  0  0  0  0  0  0
   26.8790    5.6391   15.6963 H   0  0  0  0  0  0  0  0  0  0  0  0
   28.5709    4.1841   14.5571 H   0  0  0  0  0  0  0  0  0  0  0  0
   31.3969    7.3816   14.8029 H   0  0  0  0  0  0  0  0  0  0  0  0
   25.8975   10.9196   16.8468 H   0  0  0  0  0  0  0  0  0  0  0  0
   23.7392   11.8977   17.6214 H   0  0  0  0  0  0  0  0  0  0  0  0
   20.2354    9.0048   18.1844 H   0  0  0  0  0  0  0  0  0  0  0  0
   19.5558    7.4072   17.6901 H   0  0  0  0  0  0  0  0  0  0  0  0
  1  2  1  0
  2  3  1  0
  3  4  1  0
  3  5  2  0
  5  6  1  0
  6  7  1  6
  6  8  1  0
  8  9  2  0
  9 10  1  0
 10 11  1  0
 11 12  1  0
 12 13  2  0
 12 14  1  0
 14 15  2  0
 15 16  1  0
 16 17  2  0
 17 18  1  0
 17 19  1  0
 19 20  2  0
 10 21  2  0
 21 22  1  0
 22 23  2  0
 23 24  1  0
  6 25  1  0
 25 26  1  0
 26 27  2  0
 26 28  2  0
 26  2  1  0
 23  8  1  0
 20 14  1  0
  1 29  1  0
  1 30  1  0
  1 31  1  0
  4 32  1  0
  4 33  1  0
  7 34  1  0
  7 35  1  0
  7 36  1  0
  9 37  1  0
 11 38  1  0
 15 39  1  0
 16 40  1  0
 19 41  1  0
 21 42  1  0
 22 43  1  0
 25 44  1  0
 25 45  1  0
M  END
>  <meeko>  (3)
{"is_sidechain": false}

>  <source_group>  (3)
BACE1-457

>  <source_system>  (3)
BACE1_verubecestat

>  <source_run>  (3)
alternate_457_seed4409_ex32

>  <source_seed>  (3)
4409

>  <vina_pose_rank>  (3)
3

>  <vina_affinity_kcal_mol>  (3)
-7.9989999999999997

>  <vina_rmsd_to_crystal_angstrom>  (3)
6.516

$$$$
BACE1_verubecestat__alternate_457_seed4409_ex32__pose04
     RDKit          3D

 45 47  0  0  0  0  0  0  0  0999 V2000
   22.2790   13.0550   19.4820 C   0  0  0  0  0  0  0  0  0  0  0  0
   23.7020   12.7110   19.6720 N   0  0  0  0  0  0  0  0  0  0  0  0
   24.1480   11.3950   19.9270 C   0  0  0  0  0  0  0  0  0  0  0  0
   23.1650   10.4470   19.8320 N   0  0  0  0  0  0  0  0  0  0  0  0
   25.3790   11.0910   20.2030 N   0  0  0  0  0  0  0  0  0  0  0  0
   26.3990   12.1200   20.3950 C   0  0  2  0  0  0  0  0  0  0  0  0
   27.7070   11.3430   20.2200 C   0  0  0  0  0  0  0  0  0  0  0  0
   26.3620   12.7070   21.7980 C   0  0  0  0  0  0  0  0  0  0  0  0
   25.4340   12.2620   22.7390 C   0  0  0  0  0  0  0  0  0  0  0  0
   25.3750   12.7770   24.0140 C   0  0  0  0  0  0  0  0  0  0  0  0
   24.3980   12.2410   24.8630 N   0  0  0  0  0  0  0  0  0  0  0  0
   23.0740   12.6220   24.9940 C   0  0  0  0  0  0  0  0  0  0  0  0
   22.5670   13.6010   24.4630 O   0  0  0  0  0  0  0  0  0  0  0  0
   22.2360   11.7230   25.8240 C   0  0  0  0  0  0  0  0  0  0  0  0
   21.5830   10.6520   25.2400 C   0  0  0  0  0  0  0  0  0  0  0  0
   20.8130    9.8470   26.0610 C   0  0  0  0  0  0  0  0  0  0  0  0
   20.7230   10.1270   27.4110 C   0  0  0  0  0  0  0  0  0  0  0  0
   19.9810    9.3800   28.2450 F   0  0  0  0  0  0  0  0  0  0  0  0
   21.4050   11.2190   27.8980 C   0  0  0  0  0  0  0  0  0  0  0  0
   22.1560   12.0210   27.1250 N   0  0  0  0  0  0  0  0  0  0  0  0
   26.2710   13.7600   24.4180 C   0  0  0  0  0  0  0  0  0  0  0  0
   27.1960   14.2150   23.4960 C   0  0  0  0  0  0  0  0  0  0  0  0
   27.2220   13.7120   22.2100 C   0  0  0  0  0  0  0  0  0  0  0  0
   28.1210   14.1970   21.3150 F   0  0  0  0  0  0  0  0  0  0  0  0
   26.3320   13.1330   19.2750 C   0  0  0  0  0  0  0  0  0  0  0  0
   24.7830   13.9990   19.3040 S   0  0  0  0  0  0  0  0  0  0  0  0
   24.5120   14.4100   17.9380 O   0  0  0  0  0  0  0  0  0  0  0  0
   24.6830   14.8640   20.4380 O   0  0  0  0  0  0  0  0  0  0  0  0
   21.7958   13.1718   20.4633 H   0  0  0  0  0  0  0  0  0  0  0  0
   22.2015   13.9978   18.9206 H   0  0  0  0  0  0  0  0  0  0  0  0
   21.7794   12.2518   18.9206 H   0  0  0  0  0  0  0  0  0  0  0  0
   23.3780    9.4990   19.9930 H   0  0  0  0  0  0  0  0  0  0  0  0
   22.2450   10.7120   19.6030 H   0  0  0  0  0  0  0  0  0  0  0  0
   28.1221   11.0964   21.2084 H   0  0  0  0  0  0  0  0  0  0  0  0
   27.5105   10.4150   19.6629 H   0  0  0  0  0  0  0  0  0  0  0  0
   28.4279   11.9594   19.6629 H   0  0  0  0  0  0  0  0  0  0  0  0
   24.7244   11.4719   22.4523 H   0  0  0  0  0  0  0  0  0  0  0  0
   24.6910   11.4990   25.4400 H   0  0  0  0  0  0  0  0  0  0  0  0
   21.6726   10.4480   24.1628 H   0  0  0  0  0  0  0  0  0  0  0  0
   20.2736    8.9859   25.6396 H   0  0  0  0  0  0  0  0  0  0  0  0
   21.3315   11.4459   28.9718 H   0  0  0  0  0  0  0  0  0  0  0  0
   26.2451   14.1640   25.4408 H   0  0  0  0  0  0  0  0  0  0  0  0
   27.9209   14.9880   23.7909 H   0  0  0  0  0  0  0  0  0  0  0  0
   27.1523   13.8563   19.3928 H   0  0  0  0  0  0  0  0  0  0  0  0
   26.4239   12.6048   18.3145 H   0  0  0  0  0  0  0  0  0  0  0  0
  1  2  1  0
  2  3  1  0
  3  4  1  0
  3  5  2  0
  5  6  1  0
  6  7  1  6
  6  8  1  0
  8  9  2  0
  9 10  1  0
 10 11  1  0
 11 12  1  0
 12 13  2  0
 12 14  1  0
 14 15  2  0
 15 16  1  0
 16 17  2  0
 17 18  1  0
 17 19  1  0
 19 20  2  0
 10 21  2  0
 21 22  1  0
 22 23  2  0
 23 24  1  0
  6 25  1  0
 25 26  1  0
 26 27  2  0
 26 28  2  0
 26  2  1  0
 23  8  1  0
 20 14  1  0
  1 29  1  0
  1 30  1  0
  1 31  1  0
  4 32  1  0
  4 33  1  0
  7 34  1  0
  7 35  1  0
  7 36  1  0
  9 37  1  0
 11 38  1  0
 15 39  1  0
 16 40  1  0
 19 41  1  0
 21 42  1  0
 22 43  1  0
 25 44  1  0
 25 45  1  0
M  END
>  <meeko>  (4)
{"is_sidechain": false}

>  <source_group>  (4)
BACE1-457

>  <source_system>  (4)
BACE1_verubecestat

>  <source_run>  (4)
alternate_457_seed4409_ex32

>  <source_seed>  (4)
4409

>  <vina_pose_rank>  (4)
4

>  <vina_affinity_kcal_mol>  (4)
-7.8479999999999999

>  <vina_rmsd_to_crystal_angstrom>  (4)
7.1272000000000002

$$$$
BACE1_verubecestat__alternate_457_seed4409_ex32__pose05
     RDKit          3D

 45 47  0  0  0  0  0  0  0  0999 V2000
   21.0080   12.6940   16.3110 C   0  0  0  0  0  0  0  0  0  0  0  0
   22.1870   12.8850   17.1780 N   0  0  0  0  0  0  0  0  0  0  0  0
   23.4150   12.2200   16.9660 C   0  0  0  0  0  0  0  0  0  0  0  0
   23.4640   11.5020   15.8010 N   0  0  0  0  0  0  0  0  0  0  0  0
   24.4250   12.2920   17.7780 N   0  0  0  0  0  0  0  0  0  0  0  0
   24.3290   12.9830   19.0630 C   0  0  2  0  0  0  0  0  0  0  0  0
   25.7950   13.2250   19.4310 C   0  0  0  0  0  0  0  0  0  0  0  0
   23.6910   12.1110   20.1330 C   0  0  0  0  0  0  0  0  0  0  0  0
   23.2380   10.8260   19.8390 C   0  0  0  0  0  0  0  0  0  0  0  0
   22.6540   10.0170   20.7870 C   0  0  0  0  0  0  0  0  0  0  0  0
   22.2440    8.7470   20.3620 N   0  0  0  0  0  0  0  0  0  0  0  0
   21.4920    8.4170   19.2480 C   0  0  0  0  0  0  0  0  0  0  0  0
   20.9430    9.2210   18.5060 O   0  0  0  0  0  0  0  0  0  0  0  0
   21.4020    6.9670   18.9510 C   0  0  0  0  0  0  0  0  0  0  0  0
   22.5560    6.2100   18.8460 C   0  0  0  0  0  0  0  0  0  0  0  0
   22.4130    4.8620   18.5660 C   0  0  0  0  0  0  0  0  0  0  0  0
   21.1510    4.3230   18.4060 C   0  0  0  0  0  0  0  0  0  0  0  0
   20.9640    3.0220   18.1240 F   0  0  0  0  0  0  0  0  0  0  0  0
   20.0640    5.1580   18.5230 C   0  0  0  0  0  0  0  0  0  0  0  0
   20.1710    6.4710   18.7890 N   0  0  0  0  0  0  0  0  0  0  0  0
   22.5160   10.4550   22.0980 C   0  0  0  0  0  0  0  0  0  0  0  0
   22.9580   11.7290   22.4070 C   0  0  0  0  0  0  0  0  0  0  0  0
   23.5120   12.5430   21.4390 C   0  0  0  0  0  0  0  0  0  0  0  0
   23.9110   13.8000   21.7610 F   0  0  0  0  0  0  0  0  0  0  0  0
   23.6890   14.3400   18.8760 C   0  0  0  0  0  0  0  0  0  0  0  0
   22.0150   14.1710   18.3090 S   0  0  0  0  0  0  0  0  0  0  0  0
   21.7110   15.3720   17.5520 O   0  0  0  0  0  0  0  0  0  0  0  0
   21.1680   13.6250   19.3230 O   0  0  0  0  0  0  0  0  0  0  0  0
   20.1137   12.5491   16.9349 H   0  0  0  0  0  0  0  0  0  0  0  0
   20.8722   13.5818   15.6760 H   0  0  0  0  0  0  0  0  0  0  0  0
   21.1594   11.8087   15.6760 H   0  0  0  0  0  0  0  0  0  0  0  0
   24.2790   11.0030   15.5640 H   0  0  0  0  0  0  0  0  0  0  0  0
   22.6840   11.4850   15.2000 H   0  0  0  0  0  0  0  0  0  0  0  0
   25.9002   13.2424   20.5258 H   0  0  0  0  0  0  0  0  0  0  0  0
   26.4154   12.4171   19.0158 H   0  0  0  0  0  0  0  0  0  0  0  0
   26.1229   14.1894   19.0158 H   0  0  0  0  0  0  0  0  0  0  0  0
   23.3512   10.4451   18.8133 H   0  0  0  0  0  0  0  0  0  0  0  0
   22.5270    7.9920   20.9270 H   0  0  0  0  0  0  0  0  0  0  0  0
   23.5495    6.6627   18.9800 H   0  0  0  0  0  0  0  0  0  0  0  0
   23.3021    4.2214   18.4711 H   0  0  0  0  0  0  0  0  0  0  0  0
   19.0589    4.7304   18.3926 H   0  0  0  0  0  0  0  0  0  0  0  0
   22.0688    9.8083   22.8673 H   0  0  0  0  0  0  0  0  0  0  0  0
   22.8668   12.0989   23.4389 H   0  0  0  0  0  0  0  0  0  0  0  0
   23.6926   14.8765   19.8363 H   0  0  0  0  0  0  0  0  0  0  0  0
   24.2625   14.9010   18.1235 H   0  0  0  0  0  0  0  0  0  0  0  0
  1  2  1  0
  2  3  1  0
  3  4  1  0
  3  5  2  0
  5  6  1  0
  6  7  1  1
  6  8  1  0
  8  9  2  0
  9 10  1  0
 10 11  1  0
 11 12  1  0
 12 13  2  0
 12 14  1  0
 14 15  2  0
 15 16  1  0
 16 17  2  0
 17 18  1  0
 17 19  1  0
 19 20  2  0
 10 21  2  0
 21 22  1  0
 22 23  2  0
 23 24  1  0
  6 25  1  0
 25 26  1  0
 26 27  2  0
 26 28  2  0
 26  2  1  0
 23  8  1  0
 20 14  1  0
  1 29  1  0
  1 30  1  0
  1 31  1  0
  4 32  1  0
  4 33  1  0
  7 34  1  0
  7 35  1  0
  7 36  1  0
  9 37  1  0
 11 38  1  0
 15 39  1  0
 16 40  1  0
 19 41  1  0
 21 42  1  0
 22 43  1  0
 25 44  1  0
 25 45  1  0
M  END
>  <meeko>  (5)
{"is_sidechain": false}

>  <source_group>  (5)
BACE1-457

>  <source_system>  (5)
BACE1_verubecestat

>  <source_run>  (5)
alternate_457_seed4409_ex32

>  <source_seed>  (5)
4409

>  <vina_pose_rank>  (5)
5

>  <vina_affinity_kcal_mol>  (5)
-7.6500000000000004

>  <vina_rmsd_to_crystal_angstrom>  (5)
7.2652999999999999

$$$$
BACE1_verubecestat__alternate_457_seed4409_ex32__pose06
     RDKit          3D

 45 47  0  0  0  0  0  0  0  0999 V2000
   26.0480   10.9540   16.4240 C   0  0  0  0  0  0  0  0  0  0  0  0
   26.2410   11.3770   17.8250 N   0  0  0  0  0  0  0  0  0  0  0  0
   26.9850   10.6260   18.7610 C   0  0  0  0  0  0  0  0  0  0  0  0
   27.6380    9.5520   18.2170 N   0  0  0  0  0  0  0  0  0  0  0  0
   27.0740   10.9250   20.0200 N   0  0  0  0  0  0  0  0  0  0  0  0
   26.2980   12.0160   20.6060 C   0  0  2  0  0  0  0  0  0  0  0  0
   27.0430   12.3050   21.9120 C   0  0  0  0  0  0  0  0  0  0  0  0
   24.8750   11.5920   20.9370 C   0  0  0  0  0  0  0  0  0  0  0  0
   24.4070   10.3220   20.6000 C   0  0  0  0  0  0  0  0  0  0  0  0
   23.1240    9.9120   20.8840 C   0  0  0  0  0  0  0  0  0  0  0  0
   22.7800    8.6110   20.4950 N   0  0  0  0  0  0  0  0  0  0  0  0
   21.9000    8.2180   19.5030 C   0  0  0  0  0  0  0  0  0  0  0  0
   21.1650    8.9690   18.8750 O   0  0  0  0  0  0  0  0  0  0  0  0
   21.9090    6.7690   19.1860 C   0  0  0  0  0  0  0  0  0  0  0  0
   22.6900    6.2930   18.1470 C   0  0  0  0  0  0  0  0  0  0  0  0
   22.6580    4.9320   17.8950 C   0  0  0  0  0  0  0  0  0  0  0  0
   21.8690    4.1070   18.6720 C   0  0  0  0  0  0  0  0  0  0  0  0
   21.7990    2.7820   18.4590 F   0  0  0  0  0  0  0  0  0  0  0  0
   21.1230    4.6750   19.6800 C   0  0  0  0  0  0  0  0  0  0  0  0
   21.1280    5.9920   19.9450 N   0  0  0  0  0  0  0  0  0  0  0  0
   22.2450   10.7590   21.5480 C   0  0  0  0  0  0  0  0  0  0  0  0
   22.6920   12.0240   21.8870 C   0  0  0  0  0  0  0  0  0  0  0  0
   23.9720   12.4330   21.5670 C   0  0  0  0  0  0  0  0  0  0  0  0
   24.3760   13.6900   21.8840 F   0  0  0  0  0  0  0  0  0  0  0  0
   26.4130   13.2560   19.7470 C   0  0  0  0  0  0  0  0  0  0  0  0
   25.6970   12.9790   18.1470 S   0  0  0  0  0  0  0  0  0  0  0  0
   26.3900   13.8610   17.2250 O   0  0  0  0  0  0  0  0  0  0  0  0
   24.2750   12.8490   18.2210 O   0  0  0  0  0  0  0  0  0  0  0  0
   25.5915    9.9534   16.4027 H   0  0  0  0  0  0  0  0  0  0  0  0
   25.3872   11.6695   15.9127 H   0  0  0  0  0  0  0  0  0  0  0  0
   27.0215   10.9239   15.9127 H   0  0  0  0  0  0  0  0  0  0  0  0
   28.1850    8.9660   18.7910 H   0  0  0  0  0  0  0  0  0  0  0  0
   27.5620    9.3650   17.2540 H   0  0  0  0  0  0  0  0  0  0  0  0
   26.3967   12.0543   22.7660 H   0  0  0  0  0  0  0  0  0  0  0  0
   27.9586   11.6968   21.9541 H   0  0  0  0  0  0  0  0  0  0  0  0
   27.3090   13.3715   21.9541 H   0  0  0  0  0  0  0  0  0  0  0  0
   25.0867    9.6239   20.0896 H   0  0  0  0  0  0  0  0  0  0  0  0
   23.2220    7.8840   20.9910 H   0  0  0  0  0  0  0  0  0  0  0  0
   23.3126    6.9705   17.5443 H   0  0  0  0  0  0  0  0  0  0  0  0
   23.2599    4.5087   17.0774 H   0  0  0  0  0  0  0  0  0  0  0  0
   20.4925    4.0189   20.2981 H   0  0  0  0  0  0  0  0  0  0  0  0
   21.2241   10.4336   21.7968 H   0  0  0  0  0  0  0  0  0  0  0  0
   22.0190   12.7130   22.4184 H   0  0  0  0  0  0  0  0  0  0  0  0
   25.8862   14.0866   20.2395 H   0  0  0  0  0  0  0  0  0  0  0  0
   27.4778   13.5011   19.6204 H   0  0  0  0  0  0  0  0  0  0  0  0
  1  2  1  0
  2  3  1  0
  3  4  1  0
  3  5  2  0
  5  6  1  0
  6  7  1  1
  6  8  1  0
  8  9  2  0
  9 10  1  0
 10 11  1  0
 11 12  1  0
 12 13  2  0
 12 14  1  0
 14 15  2  0
 15 16  1  0
 16 17  2  0
 17 18  1  0
 17 19  1  0
 19 20  2  0
 10 21  2  0
 21 22  1  0
 22 23  2  0
 23 24  1  0
  6 25  1  0
 25 26  1  0
 26 27  2  0
 26 28  2  0
 26  2  1  0
 23  8  1  0
 20 14  1  0
  1 29  1  0
  1 30  1  0
  1 31  1  0
  4 32  1  0
  4 33  1  0
  7 34  1  0
  7 35  1  0
  7 36  1  0
  9 37  1  0
 11 38  1  0
 15 39  1  0
 16 40  1  0
 19 41  1  0
 21 42  1  0
 22 43  1  0
 25 44  1  0
 25 45  1  0
M  END
>  <meeko>  (6)
{"is_sidechain": false}

>  <source_group>  (6)
BACE1-457

>  <source_system>  (6)
BACE1_verubecestat

>  <source_run>  (6)
alternate_457_seed4409_ex32

>  <source_seed>  (6)
4409

>  <vina_pose_rank>  (6)
6

>  <vina_affinity_kcal_mol>  (6)
-7.4009999999999998

>  <vina_rmsd_to_crystal_angstrom>  (6)
7.1609999999999996

$$$$
BACE1_verubecestat__alternate_457_seed4409_ex32__pose07
     RDKit          3D

 45 47  0  0  0  0  0  0  0  0999 V2000
   28.7380    8.2350   15.3400 C   0  0  0  0  0  0  0  0  0  0  0  0
   27.4900    7.8990   14.6260 N   0  0  0  0  0  0  0  0  0  0  0  0
   26.6020    8.8770   14.1260 C   0  0  0  0  0  0  0  0  0  0  0  0
   27.0730   10.1580   14.2260 N   0  0  0  0  0  0  0  0  0  0  0  0
   25.4510    8.6020   13.5940 N   0  0  0  0  0  0  0  0  0  0  0  0
   24.9180    7.2410   13.5780 C   0  0  2  0  0  0  0  0  0  0  0  0
   23.8460    7.3050   12.4870 C   0  0  0  0  0  0  0  0  0  0  0  0
   24.2550    6.8720   14.8970 C   0  0  0  0  0  0  0  0  0  0  0  0
   24.0690    7.8230   15.8990 C   0  0  0  0  0  0  0  0  0  0  0  0
   23.4750    7.5170   17.1030 C   0  0  0  0  0  0  0  0  0  0  0  0
   23.3470    8.5650   18.0240 N   0  0  0  0  0  0  0  0  0  0  0  0
   22.2280    9.3300   18.3010 C   0  0  0  0  0  0  0  0  0  0  0  0
   21.1770    9.2930   17.6740 O   0  0  0  0  0  0  0  0  0  0  0  0
   22.3470   10.2240   19.4780 C   0  0  0  0  0  0  0  0  0  0  0  0
   22.3290    9.6910   20.7550 C   0  0  0  0  0  0  0  0  0  0  0  0
   22.4420   10.5700   21.8170 C   0  0  0  0  0  0  0  0  0  0  0  0
   22.5700   11.9250   21.5780 C   0  0  0  0  0  0  0  0  0  0  0  0
   22.6740   12.8180   22.5770 F   0  0  0  0  0  0  0  0  0  0  0  0
   22.5720   12.3600   20.2720 C   0  0  0  0  0  0  0  0  0  0  0  0
   22.4580   11.5310   19.2210 N   0  0  0  0  0  0  0  0  0  0  0  0
   23.0130    6.2310   17.3530 C   0  0  0  0  0  0  0  0  0  0  0  0
   23.1920    5.2740   16.3700 C   0  0  0  0  0  0  0  0  0  0  0  0
   23.8190    5.5870   15.1800 C   0  0  0  0  0  0  0  0  0  0  0  0
   24.0090    4.6220   14.2440 F   0  0  0  0  0  0  0  0  0  0  0  0
   25.9780    6.2730   13.1020 C   0  0  0  0  0  0  0  0  0  0  0  0
   27.3420    6.2290   14.2360 S   0  0  0  0  0  0  0  0  0  0  0  0
   28.5140    5.8630   13.4610 O   0  0  0  0  0  0  0  0  0  0  0  0
   26.9770    5.6190   15.4770 O   0  0  0  0  0  0  0  0  0  0  0  0
   28.5637    8.1881   16.4251 H   0  0  0  0  0  0  0  0  0  0  0  0
   29.5235    7.5164   15.0634 H   0  0  0  0  0  0  0  0  0  0  0  0
   29.0565    9.2509   15.0634 H   0  0  0  0  0  0  0  0  0  0  0  0
   26.5260   10.9110   13.9040 H   0  0  0  0  0  0  0  0  0  0  0  0
   27.9600   10.3280   14.6200 H   0  0  0  0  0  0  0  0  0  0  0  0
   22.8515    7.3644   12.9532 H   0  0  0  0  0  0  0  0  0  0  0  0
   24.0117    8.1949   11.8619 H   0  0  0  0  0  0  0  0  0  0  0  0
   23.9046    6.4018   11.8619 H   0  0  0  0  0  0  0  0  0  0  0  0
   24.4087    8.8541   15.7217 H   0  0  0  0  0  0  0  0  0  0  0  0
   24.1560    8.7850   18.5400 H   0  0  0  0  0  0  0  0  0  0  0  0
   22.2285    8.6080   20.9194 H   0  0  0  0  0  0  0  0  0  0  0  0
   22.4300   10.1912   22.8497 H   0  0  0  0  0  0  0  0  0  0  0  0
   22.6718   13.4384   20.0796 H   0  0  0  0  0  0  0  0  0  0  0  0
   22.5197    5.9811   18.3039 H   0  0  0  0  0  0  0  0  0  0  0  0
   22.8297    4.2492   16.5387 H   0  0  0  0  0  0  0  0  0  0  0  0
   25.5399    5.2670   13.0250 H   0  0  0  0  0  0  0  0  0  0  0  0
   26.3452    6.6056   12.1199 H   0  0  0  0  0  0  0  0  0  0  0  0
  1  2  1  0
  2  3  1  0
  3  4  1  0
  3  5  2  0
  5  6  1  0
  6  7  1  6
  6  8  1  0
  8  9  2  0
  9 10  1  0
 10 11  1  0
 11 12  1  0
 12 13  2  0
 12 14  1  0
 14 15  2  0
 15 16  1  0
 16 17  2  0
 17 18  1  0
 17 19  1  0
 19 20  2  0
 10 21  2  0
 21 22  1  0
 22 23  2  0
 23 24  1  0
  6 25  1  0
 25 26  1  0
 26 27  2  0
 26 28  2  0
 26  2  1  0
 23  8  1  0
 20 14  1  0
  1 29  1  0
  1 30  1  0
  1 31  1  0
  4 32  1  0
  4 33  1  0
  7 34  1  0
  7 35  1  0
  7 36  1  0
  9 37  1  0
 11 38  1  0
 15 39  1  0
 16 40  1  0
 19 41  1  0
 21 42  1  0
 22 43  1  0
 25 44  1  0
 25 45  1  0
M  END
>  <meeko>  (7)
{"is_sidechain": false}

>  <source_group>  (7)
BACE1-457

>  <source_system>  (7)
BACE1_verubecestat

>  <source_run>  (7)
alternate_457_seed4409_ex32

>  <source_seed>  (7)
4409

>  <vina_pose_rank>  (7)
7

>  <vina_affinity_kcal_mol>  (7)
-7.2889999999999997

>  <vina_rmsd_to_crystal_angstrom>  (7)
9.0580999999999996

$$$$
BACE1_verubecestat__alternate_457_seed4409_ex32__pose08
     RDKit          3D

 45 47  0  0  0  0  0  0  0  0999 V2000
   23.0780    5.5410   17.2670 C   0  0  0  0  0  0  0  0  0  0  0  0
   22.6040    6.9350   17.3650 N   0  0  0  0  0  0  0  0  0  0  0  0
   22.9330    7.9290   16.4170 C   0  0  0  0  0  0  0  0  0  0  0  0
   23.6010    7.4520   15.3210 N   0  0  0  0  0  0  0  0  0  0  0  0
   22.6170    9.1810   16.5440 N   0  0  0  0  0  0  0  0  0  0  0  0
   21.9890    9.6950   17.7600 C   0  0  2  0  0  0  0  0  0  0  0  0
   21.3870   11.0250   17.3000 C   0  0  0  0  0  0  0  0  0  0  0  0
   23.0070    9.9700   18.8560 C   0  0  0  0  0  0  0  0  0  0  0  0
   22.6360    9.9720   20.1990 C   0  0  0  0  0  0  0  0  0  0  0  0
   23.5360   10.2210   21.2110 C   0  0  0  0  0  0  0  0  0  0  0  0
   23.0340   10.1910   22.5190 N   0  0  0  0  0  0  0  0  0  0  0  0
   22.6320   11.2550   23.3070 C   0  0  0  0  0  0  0  0  0  0  0  0
   22.7760   12.4370   23.0220 O   0  0  0  0  0  0  0  0  0  0  0  0
   21.9480   10.8850   24.5700 C   0  0  0  0  0  0  0  0  0  0  0  0
   21.5860   11.8680   25.4740 C   0  0  0  0  0  0  0  0  0  0  0  0
   20.9510   11.4660   26.6360 C   0  0  0  0  0  0  0  0  0  0  0  0
   20.7000   10.1250   26.8540 C   0  0  0  0  0  0  0  0  0  0  0  0
   20.0960    9.6870   27.9720 F   0  0  0  0  0  0  0  0  0  0  0  0
   21.1040    9.2210   25.8980 C   0  0  0  0  0  0  0  0  0  0  0  0
   21.7260    9.5800   24.7630 N   0  0  0  0  0  0  0  0  0  0  0  0
   24.8730   10.4600   20.9200 C   0  0  0  0  0  0  0  0  0  0  0  0
   25.2590   10.4650   19.5920 C   0  0  0  0  0  0  0  0  0  0  0  0
   24.3390   10.2460   18.5850 C   0  0  0  0  0  0  0  0  0  0  0  0
   24.7380   10.2850   17.2880 F   0  0  0  0  0  0  0  0  0  0  0  0
   20.8370    8.8030   18.1660 C   0  0  0  0  0  0  0  0  0  0  0  0
   21.4180    7.1800   18.5880 S   0  0  0  0  0  0  0  0  0  0  0  0
   20.3240    6.2650   18.3160 O   0  0  0  0  0  0  0  0  0  0  0  0
   22.1740    7.1900   19.8010 O   0  0  0  0  0  0  0  0  0  0  0  0
   23.2179    5.1294   18.2775 H   0  0  0  0  0  0  0  0  0  0  0  0
   22.3344    4.9381   16.7252 H   0  0  0  0  0  0  0  0  0  0  0  0
   24.0350    5.5164   16.7252 H   0  0  0  0  0  0  0  0  0  0  0  0
   23.8730    8.0690   14.6030 H   0  0  0  0  0  0  0  0  0  0  0  0
   23.8080    6.4920   15.2500 H   0  0  0  0  0  0  0  0  0  0  0  0
   21.1143   11.6275   18.1790 H   0  0  0  0  0  0  0  0  0  0  0  0
   22.1253   11.5720   16.6952 H   0  0  0  0  0  0  0  0  0  0  0  0
   20.4888   10.8313   16.6952 H   0  0  0  0  0  0  0  0  0  0  0  0
   21.5872    9.7675   20.4601 H   0  0  0  0  0  0  0  0  0  0  0  0
   22.9570    9.2990   22.9290 H   0  0  0  0  0  0  0  0  0  0  0  0
   21.7952   12.9297   25.2763 H   0  0  0  0  0  0  0  0  0  0  0  0
   20.6468   12.2125   27.3844 H   0  0  0  0  0  0  0  0  0  0  0  0
   20.9080    8.1527   26.0719 H   0  0  0  0  0  0  0  0  0  0  0  0
   25.6035   10.6401   21.7225 H   0  0  0  0  0  0  0  0  0  0  0  0
   26.3129   10.6458   19.3340 H   0  0  0  0  0  0  0  0  0  0  0  0
   20.3297    9.2427   19.0374 H   0  0  0  0  0  0  0  0  0  0  0  0
   20.1393    8.7197   17.3197 H   0  0  0  0  0  0  0  0  0  0  0  0
  1  2  1  0
  2  3  1  0
  3  4  1  0
  3  5  2  0
  5  6  1  0
  6  7  1  6
  6  8  1  0
  8  9  2  0
  9 10  1  0
 10 11  1  0
 11 12  1  0
 12 13  2  0
 12 14  1  0
 14 15  2  0
 15 16  1  0
 16 17  2  0
 17 18  1  0
 17 19  1  0
 19 20  2  0
 10 21  2  0
 21 22  1  0
 22 23  2  0
 23 24  1  0
  6 25  1  0
 25 26  1  0
 26 27  2  0
 26 28  2  0
 26  2  1  0
 23  8  1  0
 20 14  1  0
  1 29  1  0
  1 30  1  0
  1 31  1  0
  4 32  1  0
  4 33  1  0
  7 34  1  0
  7 35  1  0
  7 36  1  0
  9 37  1  0
 11 38  1  0
 15 39  1  0
 16 40  1  0
 19 41  1  0
 21 42  1  0
 22 43  1  0
 25 44  1  0
 25 45  1  0
M  END
>  <meeko>  (8)
{"is_sidechain": false}

>  <source_group>  (8)
BACE1-457

>  <source_system>  (8)
BACE1_verubecestat

>  <source_run>  (8)
alternate_457_seed4409_ex32

>  <source_seed>  (8)
4409

>  <vina_pose_rank>  (8)
8

>  <vina_affinity_kcal_mol>  (8)
-7.2690000000000001

>  <vina_rmsd_to_crystal_angstrom>  (8)
6.9931999999999999

$$$$
BACE1_verubecestat__alternate_457_seed4409_ex32__pose09
     RDKit          3D

 45 47  0  0  0  0  0  0  0  0999 V2000
   24.6940   11.6720   16.4360 C   0  0  0  0  0  0  0  0  0  0  0  0
   23.5270   10.8130   16.1560 N   0  0  0  0  0  0  0  0  0  0  0  0
   22.1960   11.2210   16.3950 C   0  0  0  0  0  0  0  0  0  0  0  0
   22.0750   12.5340   16.7640 N   0  0  0  0  0  0  0  0  0  0  0  0
   21.1670   10.4430   16.2570 N   0  0  0  0  0  0  0  0  0  0  0  0
   21.3150    9.0200   15.9550 C   0  0  2  0  0  0  0  0  0  0  0  0
   19.9290    8.6360   15.4280 C   0  0  0  0  0  0  0  0  0  0  0  0
   21.6110    8.2000   17.2010 C   0  0  0  0  0  0  0  0  0  0  0  0
   21.8390    8.8150   18.4310 C   0  0  0  0  0  0  0  0  0  0  0  0
   22.1110    8.0980   19.5740 C   0  0  0  0  0  0  0  0  0  0  0  0
   22.3180    8.8390   20.7450 N   0  0  0  0  0  0  0  0  0  0  0  0
   23.2630    9.8220   20.9810 C   0  0  0  0  0  0  0  0  0  0  0  0
   24.1760   10.1190   20.2220 O   0  0  0  0  0  0  0  0  0  0  0  0
   23.0930   10.5700   22.2510 C   0  0  0  0  0  0  0  0  0  0  0  0
   22.7180   11.9020   22.2230 C   0  0  0  0  0  0  0  0  0  0  0  0
   22.5770   12.5520   23.4370 C   0  0  0  0  0  0  0  0  0  0  0  0
   22.8060   11.8670   24.6140 C   0  0  0  0  0  0  0  0  0  0  0  0
   22.6900   12.4580   25.8160 F   0  0  0  0  0  0  0  0  0  0  0  0
   23.1810   10.5450   24.5390 C   0  0  0  0  0  0  0  0  0  0  0  0
   23.3320    9.8890   23.3770 N   0  0  0  0  0  0  0  0  0  0  0  0
   22.1470    6.7100   19.5410 C   0  0  0  0  0  0  0  0  0  0  0  0
   21.9260    6.0820   18.3280 C   0  0  0  0  0  0  0  0  0  0  0  0
   21.6860    6.8150   17.1830 C   0  0  0  0  0  0  0  0  0  0  0  0
   21.5020    6.1760   16.0000 F   0  0  0  0  0  0  0  0  0  0  0  0
   22.2910    8.8300   14.8160 C   0  0  0  0  0  0  0  0  0  0  0  0
   23.9130    9.3810   15.2810 S   0  0  0  0  0  0  0  0  0  0  0  0
   24.5780    9.7910   14.0570 O   0  0  0  0  0  0  0  0  0  0  0  0
   24.4980    8.5260   16.2660 O   0  0  0  0  0  0  0  0  0  0  0  0
   24.8255   11.7688   17.5238 H   0  0  0  0  0  0  0  0  0  0  0  0
   25.5956   11.2204   15.9964 H   0  0  0  0  0  0  0  0  0  0  0  0
   24.5307   12.6671   15.9964 H   0  0  0  0  0  0  0  0  0  0  0  0
   21.1860   12.9120   16.9530 H   0  0  0  0  0  0  0  0  0  0  0  0
   22.8770   13.1000   16.8410 H   0  0  0  0  0  0  0  0  0  0  0  0
   19.2534    8.4488   16.2756 H   0  0  0  0  0  0  0  0  0  0  0  0
   19.5293    9.4573   14.8150 H   0  0  0  0  0  0  0  0  0  0  0  0
   20.0090    7.7262   14.8150 H   0  0  0  0  0  0  0  0  0  0  0  0
   21.8002    9.9127   18.4903 H   0  0  0  0  0  0  0  0  0  0  0  0
   21.7150    8.6330   21.4950 H   0  0  0  0  0  0  0  0  0  0  0  0
   22.5387   12.4245   21.2718 H   0  0  0  0  0  0  0  0  0  0  0  0
   22.2832   13.6117   23.4641 H   0  0  0  0  0  0  0  0  0  0  0  0
   23.3660    9.9994   25.4761 H   0  0  0  0  0  0  0  0  0  0  0  0
   22.3454    6.1270   20.4525 H   0  0  0  0  0  0  0  0  0  0  0  0
   21.9418    4.9834   18.2753 H   0  0  0  0  0  0  0  0  0  0  0  0
   22.3341    7.7631   14.5516 H   0  0  0  0  0  0  0  0  0  0  0  0
   21.9494    9.4232   13.9549 H   0  0  0  0  0  0  0  0  0  0  0  0
  1  2  1  0
  2  3  1  0
  3  4  1  0
  3  5  2  0
  5  6  1  0
  6  7  1  6
  6  8  1  0
  8  9  2  0
  9 10  1  0
 10 11  1  0
 11 12  1  0
 12 13  2  0
 12 14  1  0
 14 15  2  0
 15 16  1  0
 16 17  2  0
 17 18  1  0
 17 19  1  0
 19 20  2  0
 10 21  2  0
 21 22  1  0
 22 23  2  0
 23 24  1  0
  6 25  1  0
 25 26  1  0
 26 27  2  0
 26 28  2  0
 26  2  1  0
 23  8  1  0
 20 14  1  0
  1 29  1  0
  1 30  1  0
  1 31  1  0
  4 32  1  0
  4 33  1  0
  7 34  1  0
  7 35  1  0
  7 36  1  0
  9 37  1  0
 11 38  1  0
 15 39  1  0
 16 40  1  0
 19 41  1  0
 21 42  1  0
 22 43  1  0
 25 44  1  0
 25 45  1  0
M  END
>  <meeko>  (9)
{"is_sidechain": false}

>  <source_group>  (9)
BACE1-457

>  <source_system>  (9)
BACE1_verubecestat

>  <source_run>  (9)
alternate_457_seed4409_ex32

>  <source_seed>  (9)
4409

>  <vina_pose_rank>  (9)
9

>  <vina_affinity_kcal_mol>  (9)
-7.2329999999999997

>  <vina_rmsd_to_crystal_angstrom>  (9)
6.9478999999999997

$$$$
BACE1_verubecestat__alternate_457_seed4409_ex32__pose10
     RDKit          3D

 45 47  0  0  0  0  0  0  0  0999 V2000
   22.6260    4.4360   17.5580 C   0  0  0  0  0  0  0  0  0  0  0  0
   22.1200    5.7850   17.2350 N   0  0  0  0  0  0  0  0  0  0  0  0
   22.2130    6.3530   15.9440 C   0  0  0  0  0  0  0  0  0  0  0  0
   22.6720    5.4880   14.9880 N   0  0  0  0  0  0  0  0  0  0  0  0
   21.8740    7.5740   15.6680 N   0  0  0  0  0  0  0  0  0  0  0  0
   21.4750    8.5160   16.7130 C   0  0  2  0  0  0  0  0  0  0  0  0
   20.7370    9.6050   15.9300 C   0  0  0  0  0  0  0  0  0  0  0  0
   22.6760    9.1400   17.4070 C   0  0  0  0  0  0  0  0  0  0  0  0
   22.6130    9.5290   18.7440 C   0  0  0  0  0  0  0  0  0  0  0  0
   23.6820   10.0980   19.3970 C   0  0  0  0  0  0  0  0  0  0  0  0
   23.4870   10.4410   20.7410 N   0  0  0  0  0  0  0  0  0  0  0  0
   22.8690   11.5660   21.2580 C   0  0  0  0  0  0  0  0  0  0  0  0
   22.4970   12.5300   20.6000 O   0  0  0  0  0  0  0  0  0  0  0  0
   22.6290   11.5420   22.7210 C   0  0  0  0  0  0  0  0  0  0  0  0
   22.5870   12.7280   23.4340 C   0  0  0  0  0  0  0  0  0  0  0  0
   22.3620   12.6460   24.7970 C   0  0  0  0  0  0  0  0  0  0  0  0
   22.1870   11.4120   25.3930 C   0  0  0  0  0  0  0  0  0  0  0  0
   21.9750   11.2830   26.7140 F   0  0  0  0  0  0  0  0  0  0  0  0
   22.2530   10.2890   24.6000 C   0  0  0  0  0  0  0  0  0  0  0  0
   22.4750   10.3360   23.2760 N   0  0  0  0  0  0  0  0  0  0  0  0
   24.8900   10.2860   18.7370 C   0  0  0  0  0  0  0  0  0  0  0  0
   24.9710    9.9080   17.4080 C   0  0  0  0  0  0  0  0  0  0  0  0
   23.8790    9.3680   16.7570 C   0  0  0  0  0  0  0  0  0  0  0  0
   23.9760    9.0330   15.4450 F   0  0  0  0  0  0  0  0  0  0  0  0
   20.4650    7.8720   17.6350 C   0  0  0  0  0  0  0  0  0  0  0  0
   21.1880    6.4970   18.4940 S   0  0  0  0  0  0  0  0  0  0  0  0
   20.1030    5.5800   18.7970 O   0  0  0  0  0  0  0  0  0  0  0  0
   22.1670    6.9240   19.4450 O   0  0  0  0  0  0  0  0  0  0  0  0
   22.6720    4.3134   18.6502 H   0  0  0  0  0  0  0  0  0  0  0  0
   21.9506    3.6794   17.1322 H   0  0  0  0  0  0  0  0  0  0  0  0
   23.6324    4.3102   17.1322 H   0  0  0  0  0  0  0  0  0  0  0  0
   22.7710    5.7910   14.0570 H   0  0  0  0  0  0  0  0  0  0  0  0
   22.9030    4.5620   15.2310 H   0  0  0  0  0  0  0  0  0  0  0  0
   20.2627   10.3049   16.6336 H   0  0  0  0  0  0  0  0  0  0  0  0
   21.4525   10.1501   15.2969 H   0  0  0  0  0  0  0  0  0  0  0  0
   19.9655    9.1424   15.2969 H   0  0  0  0  0  0  0  0  0  0  0  0
   21.6746    9.3755   19.2971 H   0  0  0  0  0  0  0  0  0  0  0  0
   23.8330    9.8000   21.4030 H   0  0  0  0  0  0  0  0  0  0  0  0
   22.7272   13.6987   22.9360 H   0  0  0  0  0  0  0  0  0  0  0  0
   22.3226   13.5619   25.4049 H   0  0  0  0  0  0  0  0  0  0  0  0
   22.1174    9.3054   25.0733 H   0  0  0  0  0  0  0  0  0  0  0  0
   25.7565   10.7224   19.2554 H   0  0  0  0  0  0  0  0  0  0  0  0
   25.9175   10.0394   16.8631 H   0  0  0  0  0  0  0  0  0  0  0  0
   20.1202    8.6154   18.3688 H   0  0  0  0  0  0  0  0  0  0  0  0
   19.6185    7.5084   17.0340 H   0  0  0  0  0  0  0  0  0  0  0  0
  1  2  1  0
  2  3  1  0
  3  4  1  0
  3  5  2  0
  5  6  1  0
  6  7  1  6
  6  8  1  0
  8  9  2  0
  9 10  1  0
 10 11  1  0
 11 12  1  0
 12 13  2  0
 12 14  1  0
 14 15  2  0
 15 16  1  0
 16 17  2  0
 17 18  1  0
 17 19  1  0
 19 20  2  0
 10 21  2  0
 21 22  1  0
 22 23  2  0
 23 24  1  0
  6 25  1  0
 25 26  1  0
 26 27  2  0
 26 28  2  0
 26  2  1  0
 23  8  1  0
 20 14  1  0
  1 29  1  0
  1 30  1  0
  1 31  1  0
  4 32  1  0
  4 33  1  0
  7 34  1  0
  7 35  1  0
  7 36  1  0
  9 37  1  0
 11 38  1  0
 15 39  1  0
 16 40  1  0
 19 41  1  0
 21 42  1  0
 22 43  1  0
 25 44  1  0
 25 45  1  0
M  END
>  <meeko>  (10)
{"is_sidechain": false}

>  <source_group>  (10)
BACE1-457

>  <source_system>  (10)
BACE1_verubecestat

>  <source_run>  (10)
alternate_457_seed4409_ex32

>  <source_seed>  (10)
4409

>  <vina_pose_rank>  (10)
10

>  <vina_affinity_kcal_mol>  (10)
-7.1459999999999999

>  <vina_rmsd_to_crystal_angstrom>  (10)
6.8307000000000002

$$$$
BACE1_verubecestat__alternate_457_seed4409_ex32__pose11
     RDKit          3D

 45 47  0  0  0  0  0  0  0  0999 V2000
   28.2460    9.7530   19.9580 C   0  0  0  0  0  0  0  0  0  0  0  0
   28.6890   11.0660   20.4670 N   0  0  0  0  0  0  0  0  0  0  0  0
   29.1650   11.2610   21.7830 C   0  0  0  0  0  0  0  0  0  0  0  0
   29.3240   10.1010   22.4930 N   0  0  0  0  0  0  0  0  0  0  0  0
   29.4550   12.4230   22.2800 N   0  0  0  0  0  0  0  0  0  0  0  0
   29.1920   13.6600   21.5470 C   0  0  2  0  0  0  0  0  0  0  0  0
   30.0880   14.6780   22.2580 C   0  0  0  0  0  0  0  0  0  0  0  0
   27.7440   14.1050   21.6780 C   0  0  0  0  0  0  0  0  0  0  0  0
   26.8050   13.3130   22.3370 C   0  0  0  0  0  0  0  0  0  0  0  0
   25.4870   13.6890   22.4680 C   0  0  0  0  0  0  0  0  0  0  0  0
   24.6470   12.8030   23.1550 N   0  0  0  0  0  0  0  0  0  0  0  0
   24.3930   12.7430   24.5140 C   0  0  0  0  0  0  0  0  0  0  0  0
   24.9790   13.3930   25.3700 O   0  0  0  0  0  0  0  0  0  0  0  0
   23.2930   11.8310   24.9130 C   0  0  0  0  0  0  0  0  0  0  0  0
   22.1750   12.3350   25.5540 C   0  0  0  0  0  0  0  0  0  0  0  0
   21.1810   11.4390   25.9050 C   0  0  0  0  0  0  0  0  0  0  0  0
   21.3280   10.0980   25.6090 C   0  0  0  0  0  0  0  0  0  0  0  0
   20.3930    9.1900   25.9380 F   0  0  0  0  0  0  0  0  0  0  0  0
   22.4790    9.6910   24.9730 C   0  0  0  0  0  0  0  0  0  0  0  0
   23.4640   10.5360   24.6260 N   0  0  0  0  0  0  0  0  0  0  0  0
   25.0480   14.9040   21.9570 C   0  0  0  0  0  0  0  0  0  0  0  0
   25.9660   15.7020   21.2970 C   0  0  0  0  0  0  0  0  0  0  0  0
   27.2770   15.2970   21.1450 C   0  0  0  0  0  0  0  0  0  0  0  0
   28.1510   16.0840   20.4670 F   0  0  0  0  0  0  0  0  0  0  0  0
   29.6990   13.5400   20.1270 C   0  0  0  0  0  0  0  0  0  0  0  0
   28.8130   12.2770   19.2490 S   0  0  0  0  0  0  0  0  0  0  0  0
   29.7140   11.7700   18.2300 O   0  0  0  0  0  0  0  0  0  0  0  0
   27.4560   12.6570   19.0060 O   0  0  0  0  0  0  0  0  0  0  0  0
   28.0217    9.0881   20.8051 H   0  0  0  0  0  0  0  0  0  0  0  0
   27.3421    9.8834   19.3448 H   0  0  0  0  0  0  0  0  0  0  0  0
   29.0441    9.3092   19.3448 H   0  0  0  0  0  0  0  0  0  0  0  0
   29.6520   10.1340   23.4210 H   0  0  0  0  0  0  0  0  0  0  0  0
   29.1110    9.2350   22.0770 H   0  0  0  0  0  0  0  0  0  0  0  0
   29.9844   14.5603   23.3468 H   0  0  0  0  0  0  0  0  0  0  0  0
   31.1358   14.5091   21.9690 H   0  0  0  0  0  0  0  0  0  0  0  0
   29.7874   15.6959   21.9690 H   0  0  0  0  0  0  0  0  0  0  0  0
   27.1284   12.3538   22.7675 H   0  0  0  0  0  0  0  0  0  0  0  0
   24.1770   12.1390   22.6000 H   0  0  0  0  0  0  0  0  0  0  0  0
   22.0801   13.4081   25.7762 H   0  0  0  0  0  0  0  0  0  0  0  0
   20.2754   11.7939   26.4188 H   0  0  0  0  0  0  0  0  0  0  0  0
   22.5979    8.6230   24.7377 H   0  0  0  0  0  0  0  0  0  0  0  0
   24.0015   15.2223   22.0736 H   0  0  0  0  0  0  0  0  0  0  0  0
   25.6468   16.6720   20.8880 H   0  0  0  0  0  0  0  0  0  0  0  0
   29.5613   14.5021   19.6119 H   0  0  0  0  0  0  0  0  0  0  0  0
   30.7651   13.2705   20.1537 H   0  0  0  0  0  0  0  0  0  0  0  0
  1  2  1  0
  2  3  1  0
  3  4  1  0
  3  5  2  0
  5  6  1  0
  6  7  1  1
  6  8  1  0
  8  9  2  0
  9 10  1  0
 10 11  1  0
 11 12  1  0
 12 13  2  0
 12 14  1  0
 14 15  2  0
 15 16  1  0
 16 17  2  0
 17 18  1  0
 17 19  1  0
 19 20  2  0
 10 21  2  0
 21 22  1  0
 22 23  2  0
 23 24  1  0
  6 25  1  0
 25 26  1  0
 26 27  2  0
 26 28  2  0
 26  2  1  0
 23  8  1  0
 20 14  1  0
  1 29  1  0
  1 30  1  0
  1 31  1  0
  4 32  1  0
  4 33  1  0
  7 34  1  0
  7 35  1  0
  7 36  1  0
  9 37  1  0
 11 38  1  0
 15 39  1  0
 16 40  1  0
 19 41  1  0
 21 42  1  0
 22 43  1  0
 25 44  1  0
 25 45  1  0
M  END
>  <meeko>  (11)
{"is_sidechain": false}

>  <source_group>  (11)
BACE1-457

>  <source_system>  (11)
BACE1_verubecestat

>  <source_run>  (11)
alternate_457_seed4409_ex32

>  <source_seed>  (11)
4409

>  <vina_pose_rank>  (11)
11

>  <vina_affinity_kcal_mol>  (11)
-7.1420000000000003

>  <vina_rmsd_to_crystal_angstrom>  (11)
7.7470999999999997

$$$$
BACE1_verubecestat__alternate_457_seed4409_ex32__pose12
     RDKit          3D

 45 47  0  0  0  0  0  0  0  0999 V2000
   24.0350   11.2860   15.8210 C   0  0  0  0  0  0  0  0  0  0  0  0
   23.6190    9.8760   15.9600 N   0  0  0  0  0  0  0  0  0  0  0  0
   24.0610    9.0420   17.0110 C   0  0  0  0  0  0  0  0  0  0  0  0
   24.7860    9.6960   17.9710 N   0  0  0  0  0  0  0  0  0  0  0  0
   23.7940    7.7750   17.0880 N   0  0  0  0  0  0  0  0  0  0  0  0
   23.1020    7.0690   16.0110 C   0  0  2  0  0  0  0  0  0  0  0  0
   22.5960    5.8000   16.7030 C   0  0  0  0  0  0  0  0  0  0  0  0
   24.0480    6.6730   14.8880 C   0  0  0  0  0  0  0  0  0  0  0  0
   25.4270    6.8200   15.0240 C   0  0  0  0  0  0  0  0  0  0  0  0
   26.3070    6.4720   14.0230 C   0  0  0  0  0  0  0  0  0  0  0  0
   27.6680    6.6680   14.2890 N   0  0  0  0  0  0  0  0  0  0  0  0
   28.5530    5.8040   14.9100 C   0  0  0  0  0  0  0  0  0  0  0  0
   28.2450    4.7530   15.4560 O   0  0  0  0  0  0  0  0  0  0  0  0
   29.9780    6.2100   14.8540 C   0  0  0  0  0  0  0  0  0  0  0  0
   30.7690    5.8120   13.7900 C   0  0  0  0  0  0  0  0  0  0  0  0
   32.0920    6.2170   13.7900 C   0  0  0  0  0  0  0  0  0  0  0  0
   32.5740    6.9930   14.8260 C   0  0  0  0  0  0  0  0  0  0  0  0
   33.8530    7.4020   14.8740 F   0  0  0  0  0  0  0  0  0  0  0  0
   31.7120    7.3330   15.8440 C   0  0  0  0  0  0  0  0  0  0  0  0
   30.4250    6.9500   15.8750 N   0  0  0  0  0  0  0  0  0  0  0  0
   25.8390    5.9330   12.8320 C   0  0  0  0  0  0  0  0  0  0  0  0
   24.4720    5.7830   12.6780 C   0  0  0  0  0  0  0  0  0  0  0  0
   23.6000    6.1660   13.6780 C   0  0  0  0  0  0  0  0  0  0  0  0
   22.2610    6.0360   13.4910 F   0  0  0  0  0  0  0  0  0  0  0  0
   21.8830    7.8520   15.5760 C   0  0  0  0  0  0  0  0  0  0  0  0
   22.3570    9.4160   14.8820 S   0  0  0  0  0  0  0  0  0  0  0  0
   21.2470   10.3230   15.1090 O   0  0  0  0  0  0  0  0  0  0  0  0
   23.0220    9.2560   13.6270 O   0  0  0  0  0  0  0  0  0  0  0  0
   24.1659   11.7297   16.8190 H   0  0  0  0  0  0  0  0  0  0  0  0
   24.9859   11.3351   15.2702 H   0  0  0  0  0  0  0  0  0  0  0  0
   23.2631   11.8435   15.2702 H   0  0  0  0  0  0  0  0  0  0  0  0
   25.1380    9.2000   18.7450 H   0  0  0  0  0  0  0  0  0  0  0  0
   24.9540   10.6630   17.8880 H   0  0  0  0  0  0  0  0  0  0  0  0
   22.6484    5.9315   17.7939 H   0  0  0  0  0  0  0  0  0  0  0  0
   21.5538    5.6112   16.4061 H   0  0  0  0  0  0  0  0  0  0  0  0
   23.2223    4.9459   16.4061 H   0  0  0  0  0  0  0  0  0  0  0  0
   25.8270    7.2283   15.9638 H   0  0  0  0  0  0  0  0  0  0  0  0
   28.0440    7.5290   13.9950 H   0  0  0  0  0  0  0  0  0  0  0  0
   30.3609    5.1966   12.9747 H   0  0  0  0  0  0  0  0  0  0  0  0
   32.7587    5.9215   12.9665 H   0  0  0  0  0  0  0  0  0  0  0  0
   32.0955    7.9477   16.6716 H   0  0  0  0  0  0  0  0  0  0  0  0
   26.5347    5.6339   12.0341 H   0  0  0  0  0  0  0  0  0  0  0  0
   24.0747    5.3530   11.7467 H   0  0  0  0  0  0  0  0  0  0  0  0
   21.3329    7.2731   14.8196 H   0  0  0  0  0  0  0  0  0  0  0  0
   21.2467    8.0331   16.4548 H   0  0  0  0  0  0  0  0  0  0  0  0
  1  2  1  0
  2  3  1  0
  3  4  1  0
  3  5  2  0
  5  6  1  0
  6  7  1  1
  6  8  1  0
  8  9  2  0
  9 10  1  0
 10 11  1  0
 11 12  1  0
 12 13  2  0
 12 14  1  0
 14 15  2  0
 15 16  1  0
 16 17  2  0
 17 18  1  0
 17 19  1  0
 19 20  2  0
 10 21  2  0
 21 22  1  0
 22 23  2  0
 23 24  1  0
  6 25  1  0
 25 26  1  0
 26 27  2  0
 26 28  2  0
 26  2  1  0
 23  8  1  0
 20 14  1  0
  1 29  1  0
  1 30  1  0
  1 31  1  0
  4 32  1  0
  4 33  1  0
  7 34  1  0
  7 35  1  0
  7 36  1  0
  9 37  1  0
 11 38  1  0
 15 39  1  0
 16 40  1  0
 19 41  1  0
 21 42  1  0
 22 43  1  0
 25 44  1  0
 25 45  1  0
M  END
>  <meeko>  (12)
{"is_sidechain": false}

>  <source_group>  (12)
BACE1-457

>  <source_system>  (12)
BACE1_verubecestat

>  <source_run>  (12)
alternate_457_seed4409_ex32

>  <source_seed>  (12)
4409

>  <vina_pose_rank>  (12)
12

>  <vina_affinity_kcal_mol>  (12)
-7.0590000000000002

>  <vina_rmsd_to_crystal_angstrom>  (12)
7.9249999999999998

$$$$
BACE1_verubecestat__alternate_457_seed4409_ex32__pose13
     RDKit          3D

 45 47  0  0  0  0  0  0  0  0999 V2000
   27.5060   10.0320   18.5270 C   0  0  0  0  0  0  0  0  0  0  0  0
   26.7420   11.2350   18.9130 N   0  0  0  0  0  0  0  0  0  0  0  0
   27.1790   12.5480   18.6330 C   0  0  0  0  0  0  0  0  0  0  0  0
   28.2950   12.6060   17.8410 N   0  0  0  0  0  0  0  0  0  0  0  0
   26.5770   13.6160   19.0590 N   0  0  0  0  0  0  0  0  0  0  0  0
   25.4440   13.5420   19.9800 C   0  0  2  0  0  0  0  0  0  0  0  0
   24.7870   14.9170   19.8250 C   0  0  0  0  0  0  0  0  0  0  0  0
   25.8920   13.3720   21.4230 C   0  0  0  0  0  0  0  0  0  0  0  0
   25.0380   12.8340   22.3840 C   0  0  0  0  0  0  0  0  0  0  0  0
   25.4160   12.6710   23.6970 C   0  0  0  0  0  0  0  0  0  0  0  0
   24.4620   12.1150   24.5610 N   0  0  0  0  0  0  0  0  0  0  0  0
   23.2230   12.6220   24.9090 C   0  0  0  0  0  0  0  0  0  0  0  0
   22.8050   13.7320   24.6060 O   0  0  0  0  0  0  0  0  0  0  0  0
   22.3550   11.6980   25.6790 C   0  0  0  0  0  0  0  0  0  0  0  0
   21.8660   10.5500   25.0810 C   0  0  0  0  0  0  0  0  0  0  0  0
   21.0590    9.7250   25.8450 C   0  0  0  0  0  0  0  0  0  0  0  0
   20.7750   10.0620   27.1550 C   0  0  0  0  0  0  0  0  0  0  0  0
   19.9900    9.2970   27.9320 F   0  0  0  0  0  0  0  0  0  0  0  0
   21.3040   11.2280   27.6590 C   0  0  0  0  0  0  0  0  0  0  0  0
   22.0850   12.0510   26.9400 N   0  0  0  0  0  0  0  0  0  0  0  0
   26.6940   13.0250   24.1100 C   0  0  0  0  0  0  0  0  0  0  0  0
   27.5550   13.5650   23.1710 C   0  0  0  0  0  0  0  0  0  0  0  0
   27.1510   13.7520   21.8640 C   0  0  0  0  0  0  0  0  0  0  0  0
   28.0050   14.3110   20.9680 F   0  0  0  0  0  0  0  0  0  0  0  0
   24.4450   12.5160   19.4940 C   0  0  0  0  0  0  0  0  0  0  0  0
   25.1600   10.8920   19.5010 S   0  0  0  0  0  0  0  0  0  0  0  0
   24.4740   10.1320   18.4720 O   0  0  0  0  0  0  0  0  0  0  0  0
   25.3860   10.4210   20.8320 O   0  0  0  0  0  0  0  0  0  0  0  0
   27.8411    9.5044   19.4322 H   0  0  0  0  0  0  0  0  0  0  0  0
   26.8649    9.3662   17.9306 H   0  0  0  0  0  0  0  0  0  0  0  0
   28.3812   10.3292   17.9306 H   0  0  0  0  0  0  0  0  0  0  0  0
   28.6760   13.4780   17.5910 H   0  0  0  0  0  0  0  0  0  0  0  0
   28.7150   11.7740   17.5220 H   0  0  0  0  0  0  0  0  0  0  0  0
   24.5845   15.3408   20.8197 H   0  0  0  0  0  0  0  0  0  0  0  0
   25.4627   15.5860   19.2720 H   0  0  0  0  0  0  0  0  0  0  0  0
   23.8420   14.8116   19.2720 H   0  0  0  0  0  0  0  0  0  0  0  0
   24.0253   12.5287   22.0820 H   0  0  0  0  0  0  0  0  0  0  0  0
   24.7060   11.2540   24.9710 H   0  0  0  0  0  0  0  0  0  0  0  0
   22.1096   10.3023   24.0373 H   0  0  0  0  0  0  0  0  0  0  0  0
   20.6446    8.8033   25.4106 H   0  0  0  0  0  0  0  0  0  0  0  0
   21.0764   11.4991   28.7005 H   0  0  0  0  0  0  0  0  0  0  0  0
   27.0123   12.8803   25.1529 H   0  0  0  0  0  0  0  0  0  0  0  0
   28.5748   13.8491   23.4697 H   0  0  0  0  0  0  0  0  0  0  0  0
   23.5660   12.5264   20.1553 H   0  0  0  0  0  0  0  0  0  0  0  0
   24.1511   12.7686   18.4645 H   0  0  0  0  0  0  0  0  0  0  0  0
  1  2  1  0
  2  3  1  0
  3  4  1  0
  3  5  2  0
  5  6  1  0
  6  7  1  1
  6  8  1  0
  8  9  2  0
  9 10  1  0
 10 11  1  0
 11 12  1  0
 12 13  2  0
 12 14  1  0
 14 15  2  0
 15 16  1  0
 16 17  2  0
 17 18  1  0
 17 19  1  0
 19 20  2  0
 10 21  2  0
 21 22  1  0
 22 23  2  0
 23 24  1  0
  6 25  1  0
 25 26  1  0
 26 27  2  0
 26 28  2  0
 26  2  1  0
 23  8  1  0
 20 14  1  0
  1 29  1  0
  1 30  1  0
  1 31  1  0
  4 32  1  0
  4 33  1  0
  7 34  1  0
  7 35  1  0
  7 36  1  0
  9 37  1  0
 11 38  1  0
 15 39  1  0
 16 40  1  0
 19 41  1  0
 21 42  1  0
 22 43  1  0
 25 44  1  0
 25 45  1  0
M  END
>  <meeko>  (13)
{"is_sidechain": false}

>  <source_group>  (13)
BACE1-457

>  <source_system>  (13)
BACE1_verubecestat

>  <source_run>  (13)
alternate_457_seed4409_ex32

>  <source_seed>  (13)
4409

>  <vina_pose_rank>  (13)
13

>  <vina_affinity_kcal_mol>  (13)
-6.9500000000000002

>  <vina_rmsd_to_crystal_angstrom>  (13)
7.4332000000000003

$$$$
BACE1_verubecestat__alternate_457_seed4409_ex32__pose14
     RDKit          3D

 45 47  0  0  0  0  0  0  0  0999 V2000
   21.5150    6.4460   16.5300 C   0  0  0  0  0  0  0  0  0  0  0  0
   22.0920    7.6320   15.8670 N   0  0  0  0  0  0  0  0  0  0  0  0
   23.4260    8.0520   16.0640 C   0  0  0  0  0  0  0  0  0  0  0  0
   24.1800    7.1790   16.8020 N   0  0  0  0  0  0  0  0  0  0  0  0
   23.9170    9.1500   15.5770 N   0  0  0  0  0  0  0  0  0  0  0  0
   23.0790   10.1190   14.8730 C   0  0  2  0  0  0  0  0  0  0  0  0
   24.1000   10.9550   14.0970 C   0  0  0  0  0  0  0  0  0  0  0  0
   22.3280   11.0290   15.8330 C   0  0  0  0  0  0  0  0  0  0  0  0
   22.4890   10.9090   17.2130 C   0  0  0  0  0  0  0  0  0  0  0  0
   21.8200   11.7160   18.1050 C   0  0  0  0  0  0  0  0  0  0  0  0
   22.0730   11.4930   19.4650 N   0  0  0  0  0  0  0  0  0  0  0  0
   22.8190   12.2670   20.3360 C   0  0  0  0  0  0  0  0  0  0  0  0
   23.5000   13.2310   20.0140 O   0  0  0  0  0  0  0  0  0  0  0  0
   22.7250   11.8800   21.7650 C   0  0  0  0  0  0  0  0  0  0  0  0
   22.5840   10.5480   22.1120 C   0  0  0  0  0  0  0  0  0  0  0  0
   22.5000   10.2440   23.4590 C   0  0  0  0  0  0  0  0  0  0  0  0
   22.5620   11.2560   24.3980 C   0  0  0  0  0  0  0  0  0  0  0  0
   22.4750   11.0100   25.7160 F   0  0  0  0  0  0  0  0  0  0  0  0
   22.6970   12.5520   23.9540 C   0  0  0  0  0  0  0  0  0  0  0  0
   22.7760   12.8780   22.6530 N   0  0  0  0  0  0  0  0  0  0  0  0
   20.9640   12.7110   17.6490 C   0  0  0  0  0  0  0  0  0  0  0  0
   20.7900   12.8420   16.2820 C   0  0  0  0  0  0  0  0  0  0  0  0
   21.4430   12.0040   15.4000 C   0  0  0  0  0  0  0  0  0  0  0  0
   21.2320   12.1350   14.0650 F   0  0  0  0  0  0  0  0  0  0  0  0
   22.2150    9.4140   13.8510 C   0  0  0  0  0  0  0  0  0  0  0  0
   21.0810    8.3050   14.6470 S   0  0  0  0  0  0  0  0  0  0  0  0
   20.7970    7.2480   13.6930 O   0  0  0  0  0  0  0  0  0  0  0  0
   20.0810    9.0130   15.3830 O   0  0  0  0  0  0  0  0  0  0  0  0
   21.5755    6.5703   17.6213 H   0  0  0  0  0  0  0  0  0  0  0  0
   20.4622    6.3349   16.2314 H   0  0  0  0  0  0  0  0  0  0  0  0
   22.0774    5.5491   16.2314 H   0  0  0  0  0  0  0  0  0  0  0  0
   25.1240    7.3840   16.9930 H   0  0  0  0  0  0  0  0  0  0  0  0
   23.7790    6.3460   17.1400 H   0  0  0  0  0  0  0  0  0  0  0  0
   24.7513   11.4883   14.8051 H   0  0  0  0  0  0  0  0  0  0  0  0
   24.7102   10.2938   13.4641 H   0  0  0  0  0  0  0  0  0  0  0  0
   23.5722   11.6836   13.4641 H   0  0  0  0  0  0  0  0  0  0  0  0
   23.1749   10.1423   17.6024 H   0  0  0  0  0  0  0  0  0  0  0  0
   21.6680   10.6820   19.8490 H   0  0  0  0  0  0  0  0  0  0  0  0
   22.5403    9.7602   21.3455 H   0  0  0  0  0  0  0  0  0  0  0  0
   22.3841    9.1989   23.7819 H   0  0  0  0  0  0  0  0  0  0  0  0
   22.7424   13.3592   24.6999 H   0  0  0  0  0  0  0  0  0  0  0  0
   20.4405   13.3745   18.3530 H   0  0  0  0  0  0  0  0  0  0  0  0
   20.1222   13.6247   15.8929 H   0  0  0  0  0  0  0  0  0  0  0  0
   21.6468   10.1631   13.2800 H   0  0  0  0  0  0  0  0  0  0  0  0
   22.8642    8.8338   13.1787 H   0  0  0  0  0  0  0  0  0  0  0  0
  1  2  1  0
  2  3  1  0
  3  4  1  0
  3  5  2  0
  5  6  1  0
  6  7  1  6
  6  8  1  0
  8  9  2  0
  9 10  1  0
 10 11  1  0
 11 12  1  0
 12 13  2  0
 12 14  1  0
 14 15  2  0
 15 16  1  0
 16 17  2  0
 17 18  1  0
 17 19  1  0
 19 20  2  0
 10 21  2  0
 21 22  1  0
 22 23  2  0
 23 24  1  0
  6 25  1  0
 25 26  1  0
 26 27  2  0
 26 28  2  0
 26  2  1  0
 23  8  1  0
 20 14  1  0
  1 29  1  0
  1 30  1  0
  1 31  1  0
  4 32  1  0
  4 33  1  0
  7 34  1  0
  7 35  1  0
  7 36  1  0
  9 37  1  0
 11 38  1  0
 15 39  1  0
 16 40  1  0
 19 41  1  0
 21 42  1  0
 22 43  1  0
 25 44  1  0
 25 45  1  0
M  END
>  <meeko>  (14)
{"is_sidechain": false}

>  <source_group>  (14)
BACE1-457

>  <source_system>  (14)
BACE1_verubecestat

>  <source_run>  (14)
alternate_457_seed4409_ex32

>  <source_seed>  (14)
4409

>  <vina_pose_rank>  (14)
14

>  <vina_affinity_kcal_mol>  (14)
-6.9429999999999996

>  <vina_rmsd_to_crystal_angstrom>  (14)
7.3781999999999996

$$$$
BACE1_verubecestat__alternate_457_seed4409_ex32__pose15
     RDKit          3D

 45 47  0  0  0  0  0  0  0  0999 V2000
   28.2330   12.8740   22.4280 C   0  0  0  0  0  0  0  0  0  0  0  0
   27.0250   13.0830   21.6060 N   0  0  0  0  0  0  0  0  0  0  0  0
   26.2190   14.2390   21.7030 C   0  0  0  0  0  0  0  0  0  0  0  0
   26.7390   15.2130   22.5130 N   0  0  0  0  0  0  0  0  0  0  0  0
   25.0980   14.3920   21.0690 N   0  0  0  0  0  0  0  0  0  0  0  0
   24.5070   13.3110   20.2820 C   0  0  2  0  0  0  0  0  0  0  0  0
   23.5180   14.0480   19.3740 C   0  0  0  0  0  0  0  0  0  0  0  0
   23.7360   12.3290   21.1510 C   0  0  0  0  0  0  0  0  0  0  0  0
   23.3410   11.0870   20.6560 C   0  0  0  0  0  0  0  0  0  0  0  0
   22.6410   10.1800   21.4190 C   0  0  0  0  0  0  0  0  0  0  0  0
   22.3060    8.9670   20.8020 N   0  0  0  0  0  0  0  0  0  0  0  0
   21.7890    8.7640   19.5350 C   0  0  0  0  0  0  0  0  0  0  0  0
   21.4130    9.6490   18.7770 O   0  0  0  0  0  0  0  0  0  0  0  0
   21.7390    7.3500   19.0910 C   0  0  0  0  0  0  0  0  0  0  0  0
   22.4800    6.9440   17.9940 C   0  0  0  0  0  0  0  0  0  0  0  0
   22.3940    5.6130   17.6220 C   0  0  0  0  0  0  0  0  0  0  0  0
   21.5930    4.7480   18.3420 C   0  0  0  0  0  0  0  0  0  0  0  0
   21.4720    3.4510   18.0130 F   0  0  0  0  0  0  0  0  0  0  0  0
   20.8900    5.2480   19.4140 C   0  0  0  0  0  0  0  0  0  0  0  0
   20.9480    6.5340   19.7960 N   0  0  0  0  0  0  0  0  0  0  0  0
   22.3190   10.4700   22.7390 C   0  0  0  0  0  0  0  0  0  0  0  0
   22.7010   11.7000   23.2460 C   0  0  0  0  0  0  0  0  0  0  0  0
   23.3750   12.6130   22.4590 C   0  0  0  0  0  0  0  0  0  0  0  0
   23.7130   13.8240   22.9710 F   0  0  0  0  0  0  0  0  0  0  0  0
   25.5530   12.6890   19.3850 C   0  0  0  0  0  0  0  0  0  0  0  0
   26.8310   11.9220   20.3500 S   0  0  0  0  0  0  0  0  0  0  0  0
   28.0370   11.9570   19.5420 O   0  0  0  0  0  0  0  0  0  0  0  0
   26.3520   10.7600   21.0300 O   0  0  0  0  0  0  0  0  0  0  0  0
   27.9640   12.9205   23.4936 H   0  0  0  0  0  0  0  0  0  0  0  0
   28.6645   11.8879   22.2015 H   0  0  0  0  0  0  0  0  0  0  0  0
   28.9708   13.6578   22.2015 H   0  0  0  0  0  0  0  0  0  0  0  0
   26.2500   16.0570   22.6440 H   0  0  0  0  0  0  0  0  0  0  0  0
   27.6020   15.0690   22.9650 H   0  0  0  0  0  0  0  0  0  0  0  0
   22.7882   14.5918   19.9918 H   0  0  0  0  0  0  0  0  0  0  0  0
   24.0644   14.7609   18.7390 H   0  0  0  0  0  0  0  0  0  0  0  0
   22.9911   13.3206   18.7390 H   0  0  0  0  0  0  0  0  0  0  0  0
   23.5977   10.8226   19.6196 H   0  0  0  0  0  0  0  0  0  0  0  0
   22.4590    8.1560   21.3390 H   0  0  0  0  0  0  0  0  0  0  0  0
   23.1130    7.6520   17.4390 H   0  0  0  0  0  0  0  0  0  0  0  0
   22.9623    5.2452   16.7550 H   0  0  0  0  0  0  0  0  0  0  0  0
   20.2493    4.5607   19.9859 H   0  0  0  0  0  0  0  0  0  0  0  0
   21.7767    9.7439   23.3625 H   0  0  0  0  0  0  0  0  0  0  0  0
   22.4645   11.9537   24.2899 H   0  0  0  0  0  0  0  0  0  0  0  0
   25.0767   11.9295   18.7476 H   0  0  0  0  0  0  0  0  0  0  0  0
   26.0031   13.4789   18.7658 H   0  0  0  0  0  0  0  0  0  0  0  0
  1  2  1  0
  2  3  1  0
  3  4  1  0
  3  5  2  0
  5  6  1  0
  6  7  1  6
  6  8  1  0
  8  9  2  0
  9 10  1  0
 10 11  1  0
 11 12  1  0
 12 13  2  0
 12 14  1  0
 14 15  2  0
 15 16  1  0
 16 17  2  0
 17 18  1  0
 17 19  1  0
 19 20  2  0
 10 21  2  0
 21 22  1  0
 22 23  2  0
 23 24  1  0
  6 25  1  0
 25 26  1  0
 26 27  2  0
 26 28  2  0
 26  2  1  0
 23  8  1  0
 20 14  1  0
  1 29  1  0
  1 30  1  0
  1 31  1  0
  4 32  1  0
  4 33  1  0
  7 34  1  0
  7 35  1  0
  7 36  1  0
  9 37  1  0
 11 38  1  0
 15 39  1  0
 16 40  1  0
 19 41  1  0
 21 42  1  0
 22 43  1  0
 25 44  1  0
 25 45  1  0
M  END
>  <meeko>  (15)
{"is_sidechain": false}

>  <source_group>  (15)
BACE1-457

>  <source_system>  (15)
BACE1_verubecestat

>  <source_run>  (15)
alternate_457_seed4409_ex32

>  <source_seed>  (15)
4409

>  <vina_pose_rank>  (15)
15

>  <vina_affinity_kcal_mol>  (15)
-6.9199999999999999

>  <vina_rmsd_to_crystal_angstrom>  (15)
6.9062999999999999

$$$$
BACE1_verubecestat__alternate_457_seed4409_ex32__pose16
     RDKit          3D

 45 47  0  0  0  0  0  0  0  0999 V2000
   26.1320   12.8150   17.7730 C   0  0  0  0  0  0  0  0  0  0  0  0
   26.3820   12.8510   19.2270 N   0  0  0  0  0  0  0  0  0  0  0  0
   27.1110   11.8510   19.9080 C   0  0  0  0  0  0  0  0  0  0  0  0
   27.6930   10.9280   19.0810 N   0  0  0  0  0  0  0  0  0  0  0  0
   27.2480   11.8090   21.1970 N   0  0  0  0  0  0  0  0  0  0  0  0
   26.5450   12.7430   22.0750 C   0  0  2  0  0  0  0  0  0  0  0  0
   27.3380   12.6490   23.3820 C   0  0  0  0  0  0  0  0  0  0  0  0
   25.1110   12.3090   22.3390 C   0  0  0  0  0  0  0  0  0  0  0  0
   24.5600   11.2090   21.6830 C   0  0  0  0  0  0  0  0  0  0  0  0
   23.2650   10.7960   21.9000 C   0  0  0  0  0  0  0  0  0  0  0  0
   22.8350    9.6740   21.1790 N   0  0  0  0  0  0  0  0  0  0  0  0
   22.2590    9.6330   19.9210 C   0  0  0  0  0  0  0  0  0  0  0  0
   21.9090   10.6120   19.2750 O   0  0  0  0  0  0  0  0  0  0  0  0
   22.1070    8.2780   19.3390 C   0  0  0  0  0  0  0  0  0  0  0  0
   22.8470    7.9170   18.2260 C   0  0  0  0  0  0  0  0  0  0  0  0
   22.6640    6.6410   17.7220 C   0  0  0  0  0  0  0  0  0  0  0  0
   21.7720    5.7820   18.3340 C   0  0  0  0  0  0  0  0  0  0  0  0
   21.5540    4.5380   17.8760 F   0  0  0  0  0  0  0  0  0  0  0  0
   21.0780    6.2340   19.4330 C   0  0  0  0  0  0  0  0  0  0  0  0
   21.2300    7.4690   19.9410 N   0  0  0  0  0  0  0  0  0  0  0  0
   22.4580   11.4610   22.8140 C   0  0  0  0  0  0  0  0  0  0  0  0
   22.9870   12.5570   23.4720 C   0  0  0  0  0  0  0  0  0  0  0  0
   24.2780   12.9800   23.2200 C   0  0  0  0  0  0  0  0  0  0  0  0
   24.7640   14.0770   23.8570 F   0  0  0  0  0  0  0  0  0  0  0  0
   26.7020   14.1570   21.5620 C   0  0  0  0  0  0  0  0  0  0  0  0
   25.9310   14.3360   19.9730 S   0  0  0  0  0  0  0  0  0  0  0  0
   26.6440   15.3970   19.2840 O   0  0  0  0  0  0  0  0  0  0  0  0
   24.5070   14.2530   20.0650 O   0  0  0  0  0  0  0  0  0  0  0  0
   25.0585   12.6604   17.5892 H   0  0  0  0  0  0  0  0  0  0  0  0
   26.4476   13.7678   17.3230 H   0  0  0  0  0  0  0  0  0  0  0  0
   26.7036   11.9899   17.3230 H   0  0  0  0  0  0  0  0  0  0  0  0
   28.2230   10.1900   19.4620 H   0  0  0  0  0  0  0  0  0  0  0  0
   27.5830   11.0010   18.1050 H   0  0  0  0  0  0  0  0  0  0  0  0
   26.6490   12.7307   24.2356 H   0  0  0  0  0  0  0  0  0  0  0  0
   27.8615   11.6825   23.4245 H   0  0  0  0  0  0  0  0  0  0  0  0
   28.0730   13.4663   23.4245 H   0  0  0  0  0  0  0  0  0  0  0  0
   25.1819   10.6517   20.9670 H   0  0  0  0  0  0  0  0  0  0  0  0
   22.9580    8.8050   21.6240 H   0  0  0  0  0  0  0  0  0  0  0  0
   23.5543    8.6184   17.7594 H   0  0  0  0  0  0  0  0  0  0  0  0
   23.2274    6.3118   16.8364 H   0  0  0  0  0  0  0  0  0  0  0  0
   20.3648    5.5519   19.9189 H   0  0  0  0  0  0  0  0  0  0  0  0
   21.4285   11.1261   23.0090 H   0  0  0  0  0  0  0  0  0  0  0  0
   22.3717   13.0988   24.2054 H   0  0  0  0  0  0  0  0  0  0  0  0
   26.2319   14.8532   22.2721 H   0  0  0  0  0  0  0  0  0  0  0  0
   27.7744   14.3805   21.4624 H   0  0  0  0  0  0  0  0  0  0  0  0
  1  2  1  0
  2  3  1  0
  3  4  1  0
  3  5  2  0
  5  6  1  0
  6  7  1  1
  6  8  1  0
  8  9  2  0
  9 10  1  0
 10 11  1  0
 11 12  1  0
 12 13  2  0
 12 14  1  0
 14 15  2  0
 15 16  1  0
 16 17  2  0
 17 18  1  0
 17 19  1  0
 19 20  2  0
 10 21  2  0
 21 22  1  0
 22 23  2  0
 23 24  1  0
  6 25  1  0
 25 26  1  0
 26 27  2  0
 26 28  2  0
 26  2  1  0
 23  8  1  0
 20 14  1  0
  1 29  1  0
  1 30  1  0
  1 31  1  0
  4 32  1  0
  4 33  1  0
  7 34  1  0
  7 35  1  0
  7 36  1  0
  9 37  1  0
 11 38  1  0
 15 39  1  0
 16 40  1  0
 19 41  1  0
 21 42  1  0
 22 43  1  0
 25 44  1  0
 25 45  1  0
M  END
>  <meeko>  (16)
{"is_sidechain": false}

>  <source_group>  (16)
BACE1-457

>  <source_system>  (16)
BACE1_verubecestat

>  <source_run>  (16)
alternate_457_seed4409_ex32

>  <source_seed>  (16)
4409

>  <vina_pose_rank>  (16)
16

>  <vina_affinity_kcal_mol>  (16)
-6.9080000000000004

>  <vina_rmsd_to_crystal_angstrom>  (16)
6.9260999999999999

$$$$
BACE1_verubecestat__alternate_457_seed4409_ex32__pose17
     RDKit          3D

 45 47  0  0  0  0  0  0  0  0999 V2000
   23.9690   12.0980   15.3130 C   0  0  0  0  0  0  0  0  0  0  0  0
   23.4440   11.3250   16.4560 N   0  0  0  0  0  0  0  0  0  0  0  0
   24.2430   10.9350   17.5540 C   0  0  0  0  0  0  0  0  0  0  0  0
   25.5050   11.4650   17.5380 N   0  0  0  0  0  0  0  0  0  0  0  0
   23.8260   10.1650   18.5110 N   0  0  0  0  0  0  0  0  0  0  0  0
   22.5100    9.5290   18.4690 C   0  0  2  0  0  0  0  0  0  0  0  0
   22.2680    9.1450   19.9310 C   0  0  0  0  0  0  0  0  0  0  0  0
   22.5150    8.2640   17.6230 C   0  0  0  0  0  0  0  0  0  0  0  0
   23.6910    7.7880   17.0470 C   0  0  0  0  0  0  0  0  0  0  0  0
   23.7240    6.6480   16.2750 C   0  0  0  0  0  0  0  0  0  0  0  0
   24.9710    6.2770   15.7570 N   0  0  0  0  0  0  0  0  0  0  0  0
   25.5220    6.6040   14.5310 C   0  0  0  0  0  0  0  0  0  0  0  0
   24.9340    7.1820   13.6270 O   0  0  0  0  0  0  0  0  0  0  0  0
   26.9480    6.2350   14.3580 C   0  0  0  0  0  0  0  0  0  0  0  0
   27.6380    6.6530   13.2340 C   0  0  0  0  0  0  0  0  0  0  0  0
   28.9660    6.2780   13.1230 C   0  0  0  0  0  0  0  0  0  0  0  0
   29.5520    5.5180   14.1170 C   0  0  0  0  0  0  0  0  0  0  0  0
   30.8340    5.1230   14.0490 F   0  0  0  0  0  0  0  0  0  0  0  0
   28.7810    5.1460   15.1950 C   0  0  0  0  0  0  0  0  0  0  0  0
   27.4890    5.4890   15.3270 N   0  0  0  0  0  0  0  0  0  0  0  0
   22.5660    5.9110   16.0610 C   0  0  0  0  0  0  0  0  0  0  0  0
   21.3890    6.3710   16.6230 C   0  0  0  0  0  0  0  0  0  0  0  0
   21.3650    7.5330   17.3680 C   0  0  0  0  0  0  0  0  0  0  0  0
   20.1910    7.9790   17.8840 F   0  0  0  0  0  0  0  0  0  0  0  0
   21.4540   10.5450   18.0960 C   0  0  0  0  0  0  0  0  0  0  0  0
   21.7300   11.1630   16.4550 S   0  0  0  0  0  0  0  0  0  0  0  0
   21.1710   12.5020   16.4170 O   0  0  0  0  0  0  0  0  0  0  0  0
   21.4820   10.1610   15.4650 O   0  0  0  0  0  0  0  0  0  0  0  0
   24.5505   12.9542   15.6855 H   0  0  0  0  0  0  0  0  0  0  0  0
   24.6168   11.4533   14.7009 H   0  0  0  0  0  0  0  0  0  0  0  0
   23.1308   12.4625   14.7009 H   0  0  0  0  0  0  0  0  0  0  0  0
   26.1370   11.2510   18.2620 H   0  0  0  0  0  0  0  0  0  0  0  0
   25.7800   12.0600   16.8040 H   0  0  0  0  0  0  0  0  0  0  0  0
   22.7381    9.8910   20.5887 H   0  0  0  0  0  0  0  0  0  0  0  0
   21.1862    9.1129   20.1274 H   0  0  0  0  0  0  0  0  0  0  0  0
   22.7058    8.1552   20.1274 H   0  0  0  0  0  0  0  0  0  0  0  0
   24.6262    8.3424   17.2148 H   0  0  0  0  0  0  0  0  0  0  0  0
   25.5270    5.7110   16.3410 H   0  0  0  0  0  0  0  0  0  0  0  0
   27.1497    7.2605   12.4577 H   0  0  0  0  0  0  0  0  0  0  0  0
   29.5536    6.5845   12.2451 H   0  0  0  0  0  0  0  0  0  0  0  0
   29.2451    4.5388   15.9862 H   0  0  0  0  0  0  0  0  0  0  0  0
   22.5847    4.9885   15.4621 H   0  0  0  0  0  0  0  0  0  0  0  0
   20.4588    5.8030   16.4743 H   0  0  0  0  0  0  0  0  0  0  0  0
   20.4633   10.0691   18.1408 H   0  0  0  0  0  0  0  0  0  0  0  0
   21.5060   11.3854   18.8039 H   0  0  0  0  0  0  0  0  0  0  0  0
  1  2  1  0
  2  3  1  0
  3  4  1  0
  3  5  2  0
  5  6  1  0
  6  7  1  1
  6  8  1  0
  8  9  2  0
  9 10  1  0
 10 11  1  0
 11 12  1  0
 12 13  2  0
 12 14  1  0
 14 15  2  0
 15 16  1  0
 16 17  2  0
 17 18  1  0
 17 19  1  0
 19 20  2  0
 10 21  2  0
 21 22  1  0
 22 23  2  0
 23 24  1  0
  6 25  1  0
 25 26  1  0
 26 27  2  0
 26 28  2  0
 26  2  1  0
 23  8  1  0
 20 14  1  0
  1 29  1  0
  1 30  1  0
  1 31  1  0
  4 32  1  0
  4 33  1  0
  7 34  1  0
  7 35  1  0
  7 36  1  0
  9 37  1  0
 11 38  1  0
 15 39  1  0
 16 40  1  0
 19 41  1  0
 21 42  1  0
 22 43  1  0
 25 44  1  0
 25 45  1  0
M  END
>  <meeko>  (17)
{"is_sidechain": false}

>  <source_group>  (17)
BACE1-457

>  <source_system>  (17)
BACE1_verubecestat

>  <source_run>  (17)
alternate_457_seed4409_ex32

>  <source_seed>  (17)
4409

>  <vina_pose_rank>  (17)
17

>  <vina_affinity_kcal_mol>  (17)
-6.9020000000000001

>  <vina_rmsd_to_crystal_angstrom>  (17)
7.1086

$$$$
BACE1_verubecestat__alternate_457_seed4409_ex32__pose18
     RDKit          3D

 45 47  0  0  0  0  0  0  0  0999 V2000
   25.5990   13.6420   19.1800 C   0  0  0  0  0  0  0  0  0  0  0  0
   24.5140   13.0390   18.3810 N   0  0  0  0  0  0  0  0  0  0  0  0
   23.1690   13.4620   18.4650 C   0  0  0  0  0  0  0  0  0  0  0  0
   22.9850   14.5780   19.2360 N   0  0  0  0  0  0  0  0  0  0  0  0
   22.1880   12.8730   17.8540 N   0  0  0  0  0  0  0  0  0  0  0  0
   22.3810   11.6280   17.1120 C   0  0  2  0  0  0  0  0  0  0  0  0
   21.1470   11.5730   16.2070 C   0  0  0  0  0  0  0  0  0  0  0  0
   22.3760   10.4130   18.0250 C   0  0  0  0  0  0  0  0  0  0  0  0
   22.2690   10.5520   19.4080 C   0  0  0  0  0  0  0  0  0  0  0  0
   22.2640    9.4690   20.2590 C   0  0  0  0  0  0  0  0  0  0  0  0
   22.1490    9.7470   21.6270 N   0  0  0  0  0  0  0  0  0  0  0  0
   23.0360   10.4280   22.4420 C   0  0  0  0  0  0  0  0  0  0  0  0
   24.1550   10.7960   22.1110 O   0  0  0  0  0  0  0  0  0  0  0  0
   22.5330   10.7440   23.8000 C   0  0  0  0  0  0  0  0  0  0  0  0
   22.6650   12.0260   24.3050 C   0  0  0  0  0  0  0  0  0  0  0  0
   22.1800   12.2650   25.5790 C   0  0  0  0  0  0  0  0  0  0  0  0
   21.5880   11.2410   26.2930 C   0  0  0  0  0  0  0  0  0  0  0  0
   21.1110   11.4230   27.5360 F   0  0  0  0  0  0  0  0  0  0  0  0
   21.5080    9.9980   25.7080 C   0  0  0  0  0  0  0  0  0  0  0  0
   21.9750    9.7340   24.4760 N   0  0  0  0  0  0  0  0  0  0  0  0
   22.3460    8.1780   19.7540 C   0  0  0  0  0  0  0  0  0  0  0  0
   22.4560    8.0210   18.3840 C   0  0  0  0  0  0  0  0  0  0  0  0
   22.4920    9.1170   17.5450 C   0  0  0  0  0  0  0  0  0  0  0  0
   22.6300    8.9370   16.2060 F   0  0  0  0  0  0  0  0  0  0  0  0
   23.5880   11.7450   16.2070 C   0  0  0  0  0  0  0  0  0  0  0  0
   25.0690   11.9570   17.1630 S   0  0  0  0  0  0  0  0  0  0  0  0
   26.0000   12.6930   16.3260 O   0  0  0  0  0  0  0  0  0  0  0  0
   25.4040   10.7700   17.8860 O   0  0  0  0  0  0  0  0  0  0  0  0
   25.3779   13.5191   20.2505 H   0  0  0  0  0  0  0  0  0  0  0  0
   26.5501   13.1431   18.9424 H   0  0  0  0  0  0  0  0  0  0  0  0
   25.6775   14.7132   18.9424 H   0  0  0  0  0  0  0  0  0  0  0  0
   22.0810   14.9500   19.3550 H   0  0  0  0  0  0  0  0  0  0  0  0
   23.7560   15.0090   19.6710 H   0  0  0  0  0  0  0  0  0  0  0  0
   20.2392   11.5325   16.8269 H   0  0  0  0  0  0  0  0  0  0  0  0
   21.1177   12.4707   15.5720 H   0  0  0  0  0  0  0  0  0  0  0  0
   21.1977   10.6762   15.5720 H   0  0  0  0  0  0  0  0  0  0  0  0
   22.1856   11.5624   19.8348 H   0  0  0  0  0  0  0  0  0  0  0  0
   21.3310    9.4150   22.0640 H   0  0  0  0  0  0  0  0  0  0  0  0
   23.1379   12.8253   23.7155 H   0  0  0  0  0  0  0  0  0  0  0  0
   22.2657   13.2681   26.0222 H   0  0  0  0  0  0  0  0  0  0  0  0
   21.0392    9.1812   26.2763 H   0  0  0  0  0  0  0  0  0  0  0  0
   22.3241    7.3057   20.4238 H   0  0  0  0  0  0  0  0  0  0  0  0
   22.5156    7.0090   17.9571 H   0  0  0  0  0  0  0  0  0  0  0  0
   23.6761   10.8304   15.6022 H   0  0  0  0  0  0  0  0  0  0  0  0
   23.4585   12.6217   15.5554 H   0  0  0  0  0  0  0  0  0  0  0  0
  1  2  1  0
  2  3  1  0
  3  4  1  0
  3  5  2  0
  5  6  1  0
  6  7  1  6
  6  8  1  0
  8  9  2  0
  9 10  1  0
 10 11  1  0
 11 12  1  0
 12 13  2  0
 12 14  1  0
 14 15  2  0
 15 16  1  0
 16 17  2  0
 17 18  1  0
 17 19  1  0
 19 20  2  0
 10 21  2  0
 21 22  1  0
 22 23  2  0
 23 24  1  0
  6 25  1  0
 25 26  1  0
 26 27  2  0
 26 28  2  0
 26  2  1  0
 23  8  1  0
 20 14  1  0
  1 29  1  0
  1 30  1  0
  1 31  1  0
  4 32  1  0
  4 33  1  0
  7 34  1  0
  7 35  1  0
  7 36  1  0
  9 37  1  0
 11 38  1  0
 15 39  1  0
 16 40  1  0
 19 41  1  0
 21 42  1  0
 22 43  1  0
 25 44  1  0
 25 45  1  0
M  END
>  <meeko>  (18)
{"is_sidechain": false}

>  <source_group>  (18)
BACE1-457

>  <source_system>  (18)
BACE1_verubecestat

>  <source_run>  (18)
alternate_457_seed4409_ex32

>  <source_seed>  (18)
4409

>  <vina_pose_rank>  (18)
18

>  <vina_affinity_kcal_mol>  (18)
-6.7510000000000003

>  <vina_rmsd_to_crystal_angstrom>  (18)
6.5487000000000002

$$$$
BACE1_verubecestat__alternate_457_seed4409_ex32__pose19
     RDKit          3D

 45 47  0  0  0  0  0  0  0  0999 V2000
   27.8420   12.1540   18.8780 C   0  0  0  0  0  0  0  0  0  0  0  0
   26.4080   12.3090   19.1940 N   0  0  0  0  0  0  0  0  0  0  0  0
   25.7410   13.5540   19.1600 C   0  0  0  0  0  0  0  0  0  0  0  0
   26.5020   14.5770   18.6620 N   0  0  0  0  0  0  0  0  0  0  0  0
   24.5120   13.7250   19.5390 N   0  0  0  0  0  0  0  0  0  0  0  0
   23.7420   12.6470   20.1570 C   0  0  2  0  0  0  0  0  0  0  0  0
   22.2950   13.1220   19.9930 C   0  0  0  0  0  0  0  0  0  0  0  0
   24.0470   12.5040   21.6400 C   0  0  0  0  0  0  0  0  0  0  0  0
   25.1290   13.1650   22.2190 C   0  0  0  0  0  0  0  0  0  0  0  0
   25.4300   13.0520   23.5570 C   0  0  0  0  0  0  0  0  0  0  0  0
   26.5430   13.7710   24.0130 N   0  0  0  0  0  0  0  0  0  0  0  0
   27.8700   13.3800   24.0240 C   0  0  0  0  0  0  0  0  0  0  0  0
   28.2770   12.2590   23.7450 O   0  0  0  0  0  0  0  0  0  0  0  0
   28.8420   14.4450   24.3730 C   0  0  0  0  0  0  0  0  0  0  0  0
   28.5660   15.3170   25.4120 C   0  0  0  0  0  0  0  0  0  0  0  0
   29.5060   16.2930   25.6930 C   0  0  0  0  0  0  0  0  0  0  0  0
   30.6680   16.3650   24.9490 C   0  0  0  0  0  0  0  0  0  0  0  0
   31.6050   17.3000   25.1790 F   0  0  0  0  0  0  0  0  0  0  0  0
   30.8490   15.4550   23.9310 C   0  0  0  0  0  0  0  0  0  0  0  0
   29.9520   14.5010   23.6310 N   0  0  0  0  0  0  0  0  0  0  0  0
   24.6370   12.2780   24.3940 C   0  0  0  0  0  0  0  0  0  0  0  0
   23.5600   11.6110   23.8360 C   0  0  0  0  0  0  0  0  0  0  0  0
   23.2890   11.7080   22.4850 C   0  0  0  0  0  0  0  0  0  0  0  0
   22.2440   11.0210   21.9570 F   0  0  0  0  0  0  0  0  0  0  0  0
   23.8850   11.3770   19.3480 C   0  0  0  0  0  0  0  0  0  0  0  0
   25.5690   10.8140   19.3570 S   0  0  0  0  0  0  0  0  0  0  0  0
   25.7650   10.0740   18.1230 O   0  0  0  0  0  0  0  0  0  0  0  0
   25.9600   10.3420   20.6480 O   0  0  0  0  0  0  0  0  0  0  0  0
   28.4188   12.0917   19.8126 H   0  0  0  0  0  0  0  0  0  0  0  0
   27.9912   11.2345   18.2930 H   0  0  0  0  0  0  0  0  0  0  0  0
   28.1843   13.0204   18.2930 H   0  0  0  0  0  0  0  0  0  0  0  0
   26.1250   15.4850   18.5990 H   0  0  0  0  0  0  0  0  0  0  0  0
   27.4260   14.4070   18.3670 H   0  0  0  0  0  0  0  0  0  0  0  0
   21.8431   13.2703   20.9849 H   0  0  0  0  0  0  0  0  0  0  0  0
   22.2815   14.0717   19.4382 H   0  0  0  0  0  0  0  0  0  0  0  0
   21.7213   12.3650   19.4382 H   0  0  0  0  0  0  0  0  0  0  0  0
   25.7648   13.7994   21.5839 H   0  0  0  0  0  0  0  0  0  0  0  0
   26.3570   14.6690   24.3710 H   0  0  0  0  0  0  0  0  0  0  0  0
   27.6349   15.2372   25.9922 H   0  0  0  0  0  0  0  0  0  0  0  0
   29.3283   17.0105   26.5076 H   0  0  0  0  0  0  0  0  0  0  0  0
   31.7720   15.5121   23.3353 H   0  0  0  0  0  0  0  0  0  0  0  0
   24.8581   12.1973   25.4685 H   0  0  0  0  0  0  0  0  0  0  0  0
   22.9114   10.9956   24.4769 H   0  0  0  0  0  0  0  0  0  0  0  0
   23.2413   10.5978   19.7822 H   0  0  0  0  0  0  0  0  0  0  0  0
   23.5865   11.5834   18.3096 H   0  0  0  0  0  0  0  0  0  0  0  0
  1  2  1  0
  2  3  1  0
  3  4  1  0
  3  5  2  0
  5  6  1  0
  6  7  1  1
  6  8  1  0
  8  9  2  0
  9 10  1  0
 10 11  1  0
 11 12  1  0
 12 13  2  0
 12 14  1  0
 14 15  2  0
 15 16  1  0
 16 17  2  0
 17 18  1  0
 17 19  1  0
 19 20  2  0
 10 21  2  0
 21 22  1  0
 22 23  2  0
 23 24  1  0
  6 25  1  0
 25 26  1  0
 26 27  2  0
 26 28  2  0
 26  2  1  0
 23  8  1  0
 20 14  1  0
  1 29  1  0
  1 30  1  0
  1 31  1  0
  4 32  1  0
  4 33  1  0
  7 34  1  0
  7 35  1  0
  7 36  1  0
  9 37  1  0
 11 38  1  0
 15 39  1  0
 16 40  1  0
 19 41  1  0
 21 42  1  0
 22 43  1  0
 25 44  1  0
 25 45  1  0
M  END
>  <meeko>  (19)
{"is_sidechain": false}

>  <source_group>  (19)
BACE1-457

>  <source_system>  (19)
BACE1_verubecestat

>  <source_run>  (19)
alternate_457_seed4409_ex32

>  <source_seed>  (19)
4409

>  <vina_pose_rank>  (19)
19

>  <vina_affinity_kcal_mol>  (19)
-6.7000000000000002

>  <vina_rmsd_to_crystal_angstrom>  (19)
5.8780999999999999

$$$$
BACE1_verubecestat__alternate_457_seed4409_ex32__pose20
     RDKit          3D

 45 47  0  0  0  0  0  0  0  0999 V2000
   25.6000   10.7250   19.4870 C   0  0  0  0  0  0  0  0  0  0  0  0
   24.3800   11.4480   19.0750 N   0  0  0  0  0  0  0  0  0  0  0  0
   23.1870   11.4380   19.8320 C   0  0  0  0  0  0  0  0  0  0  0  0
   23.3080   10.8280   21.0520 N   0  0  0  0  0  0  0  0  0  0  0  0
   22.0760   11.9760   19.4330 N   0  0  0  0  0  0  0  0  0  0  0  0
   21.9330   12.5400   18.0920 C   0  0  2  0  0  0  0  0  0  0  0  0
   20.7040   13.4430   18.2290 C   0  0  0  0  0  0  0  0  0  0  0  0
   21.6430   11.4700   17.0510 C   0  0  0  0  0  0  0  0  0  0  0  0
   21.6110   10.1190   17.3960 C   0  0  0  0  0  0  0  0  0  0  0  0
   21.3540    9.1300   16.4750 C   0  0  0  0  0  0  0  0  0  0  0  0
   21.3480    7.8130   16.9530 N   0  0  0  0  0  0  0  0  0  0  0  0
   22.4290    6.9790   17.1780 C   0  0  0  0  0  0  0  0  0  0  0  0
   23.5860    7.2250   16.8650 O   0  0  0  0  0  0  0  0  0  0  0  0
   22.1160    5.7150   17.8880 C   0  0  0  0  0  0  0  0  0  0  0  0
   22.1500    5.6720   19.2710 C   0  0  0  0  0  0  0  0  0  0  0  0
   21.8510    4.4660   19.8810 C   0  0  0  0  0  0  0  0  0  0  0  0
   21.5310    3.3660   19.1100 C   0  0  0  0  0  0  0  0  0  0  0  0
   21.2430    2.1730   19.6570 F   0  0  0  0  0  0  0  0  0  0  0  0
   21.5290    3.5060   17.7400 C   0  0  0  0  0  0  0  0  0  0  0  0
   21.8200    4.6610   17.1200 N   0  0  0  0  0  0  0  0  0  0  0  0
   21.0900    9.4540   15.1500 C   0  0  0  0  0  0  0  0  0  0  0  0
   21.1200   10.7890   14.7880 C   0  0  0  0  0  0  0  0  0  0  0  0
   21.4120   11.7690   15.7170 C   0  0  0  0  0  0  0  0  0  0  0  0
   21.4640   13.0690   15.3310 F   0  0  0  0  0  0  0  0  0  0  0  0
   23.1100   13.4370   17.7780 C   0  0  0  0  0  0  0  0  0  0  0  0
   24.6180   12.5010   17.7350 S   0  0  0  0  0  0  0  0  0  0  0  0
   25.6840   13.4190   18.0920 O   0  0  0  0  0  0  0  0  0  0  0  0
   24.6590   11.6200   16.6100 O   0  0  0  0  0  0  0  0  0  0  0  0
   25.6540   10.6930   20.5852 H   0  0  0  0  0  0  0  0  0  0  0  0
   25.5695    9.6991   19.0913 H   0  0  0  0  0  0  0  0  0  0  0  0
   26.4853   11.2444   19.0913 H   0  0  0  0  0  0  0  0  0  0  0  0
   22.5300   10.7720   21.6520 H   0  0  0  0  0  0  0  0  0  0  0  0
   24.1730   10.4470   21.3280 H   0  0  0  0  0  0  0  0  0  0  0  0
   20.4845   13.6043   19.2947 H   0  0  0  0  0  0  0  0  0  0  0  0
   20.9041   14.4105   17.7453 H   0  0  0  0  0  0  0  0  0  0  0  0
   19.8405   12.9629   17.7453 H   0  0  0  0  0  0  0  0  0  0  0  0
   21.7979    9.8341   18.4419 H   0  0  0  0  0  0  0  0  0  0  0  0
   20.4630    7.4330   17.1550 H   0  0  0  0  0  0  0  0  0  0  0  0
   22.4051    6.5631   19.8633 H   0  0  0  0  0  0  0  0  0  0  0  0
   21.8683    4.3840   20.9778 H   0  0  0  0  0  0  0  0  0  0  0  0
   21.2770    2.6300   17.1243 H   0  0  0  0  0  0  0  0  0  0  0  0
   20.8637    8.6719   14.4103 H   0  0  0  0  0  0  0  0  0  0  0  0
   20.9086   11.0739   13.7468 H   0  0  0  0  0  0  0  0  0  0  0  0
   22.9513   13.9113   16.7983 H   0  0  0  0  0  0  0  0  0  0  0  0
   23.1910   14.2024   18.5638 H   0  0  0  0  0  0  0  0  0  0  0  0
  1  2  1  0
  2  3  1  0
  3  4  1  0
  3  5  2  0
  5  6  1  0
  6  7  1  1
  6  8  1  0
  8  9  2  0
  9 10  1  0
 10 11  1  0
 11 12  1  0
 12 13  2  0
 12 14  1  0
 14 15  2  0
 15 16  1  0
 16 17  2  0
 17 18  1  0
 17 19  1  0
 19 20  2  0
 10 21  2  0
 21 22  1  0
 22 23  2  0
 23 24  1  0
  6 25  1  0
 25 26  1  0
 26 27  2  0
 26 28  2  0
 26  2  1  0
 23  8  1  0
 20 14  1  0
  1 29  1  0
  1 30  1  0
  1 31  1  0
  4 32  1  0
  4 33  1  0
  7 34  1  0
  7 35  1  0
  7 36  1  0
  9 37  1  0
 11 38  1  0
 15 39  1  0
 16 40  1  0
 19 41  1  0
 21 42  1  0
 22 43  1  0
 25 44  1  0
 25 45  1  0
M  END
>  <meeko>  (20)
{"is_sidechain": false}

>  <source_group>  (20)
BACE1-457

>  <source_system>  (20)
BACE1_verubecestat

>  <source_run>  (20)
alternate_457_seed4409_ex32

>  <source_seed>  (20)
4409

>  <vina_pose_rank>  (20)
20

>  <vina_affinity_kcal_mol>  (20)
-6.6950000000000003

>  <vina_rmsd_to_crystal_angstrom>  (20)
7.1486999999999998

$$$$
