BACE1_verubecestat__alternate_457_seed4409_ex32__pose01


 31 33  0  0  0  0  0  0  0  0999 V2000
   24.0790   12.6900   20.7950 C   0  0  0  0  0  0  0  0  0  0  0  0
   23.5500   12.4050   22.0530 C   0  0  0  0  0  0  0  0  0  0  0  0
   22.7150   11.3330   22.2750 C   0  0  0  0  0  0  0  0  0  0  0  0
   22.3490   10.4980   21.2270 C   0  0  0  0  0  0  0  0  0  0  0  0
   22.8660   10.7640   19.9720 C   0  0  0  0  0  0  0  0  0  0  0  0
   23.7280   11.8240   19.7700 C   0  0  0  0  0  0  0  0  0  0  0  0
   24.2460   12.0460   18.5350 F   0  0  0  0  0  0  0  0  0  0  0  0
   27.8370   12.7110   23.6280 C   0  0  0  0  0  0  0  0  0  0  0  0
   26.9530   13.1950   22.5480 N   0  0  0  0  0  0  0  0  0  0  0  0
   26.0600   14.2770   22.7110 C   0  0  0  0  0  0  0  0  0  0  0  0
   26.1950   14.9340   23.9050 N   0  0  0  0  0  0  0  0  0  0  0  0
   25.2010   14.6460   21.8110 N   0  0  0  0  0  0  0  0  0  0  0  0
   25.0010   13.8800   20.5820 C   0  0  0  0  0  0  0  0  0  0  0  0
   24.3050   14.8870   19.6610 C   0  0  0  0  0  0  0  0  0  0  0  0
   26.3360   13.5520   19.9510 C   0  0  0  0  0  0  0  0  0  0  0  0
   27.2870   12.4940   21.0120 S   0  0  0  0  0  0  0  0  0  0  0  0
   28.6840   12.7570   20.7140 O   0  0  0  0  0  0  0  0  0  0  0  0
   26.7170   11.1860   21.1010 O   0  0  0  0  0  0  0  0  0  0  0  0
   25.6170   15.7040   24.1110 H   0  0  0  0  0  0  0  0  0  0  0  0
   26.8710   14.6370   24.5570 H   0  0  0  0  0  0  0  0  0  0  0  0
   22.2520   11.1600   23.5860 N   0  0  0  0  0  0  0  0  0  0  0  0
   22.9500   11.3150   24.7700 C   0  0  0  0  0  0  0  0  0  0  0  0
   24.1560   11.5110   24.8560 O   0  0  0  0  0  0  0  0  0  0  0  0
   21.3080   10.8940   23.6750 H   0  0  0  0  0  0  0  0  0  0  0  0
   22.1270   11.2670   26.0020 C   0  0  0  0  0  0  0  0  0  0  0  0
   20.9210   10.5870   26.0010 C   0  0  0  0  0  0  0  0  0  0  0  0
   20.1920   10.5760   27.1770 C   0  0  0  0  0  0  0  0  0  0  0  0
   20.6800   11.2260   28.2950 C   0  0  0  0  0  0  0  0  0  0  0  0
   20.0040   11.2500   29.4560 F   0  0  0  0  0  0  0  0  0  0  0  0
   21.8870   11.8800   28.1950 C   0  0  0  0  0  0  0  0  0  0  0  0
   22.6140   11.9130   27.0660 N   0  0  0  0  0  0  0  0  0  0  0  0
  8  9  1  0
  9 10  1  0
 10 11  1  0
 10 12  2  0
 12 13  1  0
 13 14  1  0
 13  1  1  0
  1  2  2  0
  2  3  1  0
  3 21  1  0
 21 22  1  0
 22 23  2  0
 22 25  1  0
 25 26  2  0
 26 27  1  0
 27 28  2  0
 28 29  1  0
 28 30  1  0
 30 31  2  0
  3  4  2  0
  4  5  1  0
  5  6  2  0
  6  7  1  0
 13 15  1  0
 15 16  1  0
 16 17  2  0
 16 18  2  0
 16  9  1  0
  6  1  1  0
 31 25  1  0
 11 19  1  0
 11 20  1  0
 21 24  1  0
M  END
> <meeko>
{"is_sidechain": false}

> <source_group>
BACE1-457

> <source_system>
BACE1_verubecestat

> <source_run>
alternate_457_seed4409_ex32

> <source_seed>
4409

> <vina_pose_rank>
1

> <vina_affinity_kcal_mol>
-8.2840000000000007

> <vina_rmsd_to_crystal_angstrom>
7.0205000000000002

> <minimizedAffinity>
-8.28684

> <CNNscore>
0.0386954919

> <CNNaffinity>
4.0849676132

> <CNN_VS>
0.1580698341

> <CNNaffinity_variance>
1.3944565058

$$$$
BACE1_verubecestat__alternate_457_seed4409_ex32__pose02


 31 33  0  0  0  0  0  0  0  0999 V2000
   25.3330   13.3570   20.6460 C   0  0  0  0  0  0  0  0  0  0  0  0
   24.7470   12.7800   21.7710 C   0  0  0  0  0  0  0  0  0  0  0  0
   23.4220   12.4090   21.8040 C   0  0  0  0  0  0  0  0  0  0  0  0
   22.6050   12.6240   20.7010 C   0  0  0  0  0  0  0  0  0  0  0  0
   23.1700   13.1930   19.5740 C   0  0  0  0  0  0  0  0  0  0  0  0
   24.5080   13.5300   19.5450 C   0  0  0  0  0  0  0  0  0  0  0  0
   25.0450   14.0600   18.4160 F   0  0  0  0  0  0  0  0  0  0  0  0
   28.2830    9.7170   21.0920 C   0  0  0  0  0  0  0  0  0  0  0  0
   27.8950   11.1300   20.9100 N   0  0  0  0  0  0  0  0  0  0  0  0
   27.9360   12.0810   21.9550 C   0  0  0  0  0  0  0  0  0  0  0  0
   28.5100   11.6150   23.1070 N   0  0  0  0  0  0  0  0  0  0  0  0
   27.4970   13.2960   21.8420 N   0  0  0  0  0  0  0  0  0  0  0  0
   26.8010   13.7530   20.6400 C   0  0  0  0  0  0  0  0  0  0  0  0
   26.9020   15.2770   20.7440 C   0  0  0  0  0  0  0  0  0  0  0  0
   27.5710   13.3410   19.4050 C   0  0  0  0  0  0  0  0  0  0  0  0
   27.6340   11.5720   19.2670 S   0  0  0  0  0  0  0  0  0  0  0  0
   28.8490   11.2560   18.5390 O   0  0  0  0  0  0  0  0  0  0  0  0
   26.3500   11.0210   18.9650 O   0  0  0  0  0  0  0  0  0  0  0  0
   28.5850   12.2040   23.8920 H   0  0  0  0  0  0  0  0  0  0  0  0
   28.8490   10.6910   23.1500 H   0  0  0  0  0  0  0  0  0  0  0  0
   22.9580   11.8410   22.9980 N   0  0  0  0  0  0  0  0  0  0  0  0
   22.4410   12.4850   24.1080 C   0  0  0  0  0  0  0  0  0  0  0  0
   22.4260   13.6970   24.2770 O   0  0  0  0  0  0  0  0  0  0  0  0
   23.0050   10.8590   23.0530 H   0  0  0  0  0  0  0  0  0  0  0  0
   21.8390   11.5960   25.1320 C   0  0  0  0  0  0  0  0  0  0  0  0
   21.7910   10.2290   24.9180 C   0  0  0  0  0  0  0  0  0  0  0  0
   21.2170    9.4480   25.9050 C   0  0  0  0  0  0  0  0  0  0  0  0
   20.7220   10.0400   27.0510 C   0  0  0  0  0  0  0  0  0  0  0  0
   20.1470    9.3230   28.0310 F   0  0  0  0  0  0  0  0  0  0  0  0
   20.8100   11.4090   27.1690 C   0  0  0  0  0  0  0  0  0  0  0  0
   21.3570   12.1940   26.2260 N   0  0  0  0  0  0  0  0  0  0  0  0
  8  9  1  0
  9 10  1  0
 10 11  1  0
 10 12  2  0
 12 13  1  0
 13 14  1  0
 13  1  1  0
  1  2  2  0
  2  3  1  0
  3 21  1  0
 21 22  1  0
 22 23  2  0
 22 25  1  0
 25 26  2  0
 26 27  1  0
 27 28  2  0
 28 29  1  0
 28 30  1  0
 30 31  2  0
  3  4  2  0
  4  5  1  0
  5  6  2  0
  6  7  1  0
 13 15  1  0
 15 16  1  0
 16 17  2  0
 16 18  2  0
 16  9  1  0
  6  1  1  0
 31 25  1  0
 11 19  1  0
 11 20  1  0
 21 24  1  0
M  END
> <meeko>
{"is_sidechain": false}

> <source_group>
BACE1-457

> <source_system>
BACE1_verubecestat

> <source_run>
alternate_457_seed4409_ex32

> <source_seed>
4409

> <vina_pose_rank>
2

> <vina_affinity_kcal_mol>
-8.0079999999999991

> <vina_rmsd_to_crystal_angstrom>
7.2911000000000001

> <minimizedAffinity>
-7.84093

> <CNNscore>
0.0454183407

> <CNNaffinity>
4.4667973518

> <CNN_VS>
0.2028745264

> <CNNaffinity_variance>
0.8385394216

$$$$
BACE1_verubecestat__alternate_457_seed4409_ex32__pose03


 31 33  0  0  0  0  0  0  0  0999 V2000
   22.5750    8.8340   16.6900 C   0  0  0  0  0  0  0  0  0  0  0  0
   23.7950    8.3100   16.2620 C   0  0  0  0  0  0  0  0  0  0  0  0
   24.9670    9.0280   16.3260 C   0  0  0  0  0  0  0  0  0  0  0  0
   24.9690   10.3310   16.8090 C   0  0  0  0  0  0  0  0  0  0  0  0
   23.7680   10.8660   17.2410 C   0  0  0  0  0  0  0  0  0  0  0  0
   22.6050   10.1220   17.2010 C   0  0  0  0  0  0  0  0  0  0  0  0
   21.4450   10.6600   17.6580 F   0  0  0  0  0  0  0  0  0  0  0  0
   22.7110    4.8510   19.1930 C   0  0  0  0  0  0  0  0  0  0  0  0
   22.1130    5.8810   18.3220 N   0  0  0  0  0  0  0  0  0  0  0  0
   21.9680    5.7200   16.9260 C   0  0  0  0  0  0  0  0  0  0  0  0
   22.2900    4.4680   16.4750 N   0  0  0  0  0  0  0  0  0  0  0  0
   21.5460    6.6550   16.1310 N   0  0  0  0  0  0  0  0  0  0  0  0
   21.2970    8.0140   16.6090 C   0  0  0  0  0  0  0  0  0  0  0  0
   20.4010    8.6030   15.5150 C   0  0  0  0  0  0  0  0  0  0  0  0
   20.4780    7.9760   17.8800 C   0  0  0  0  0  0  0  0  0  0  0  0
   21.3820    7.1800   19.1840 S   0  0  0  0  0  0  0  0  0  0  0  0
   20.3950    6.6000   20.0770 O   0  0  0  0  0  0  0  0  0  0  0  0
   22.4910    7.9710   19.6170 O   0  0  0  0  0  0  0  0  0  0  0  0
   22.2200    4.2570   15.5160 H   0  0  0  0  0  0  0  0  0  0  0  0
   22.5890    3.7780   17.1100 H   0  0  0  0  0  0  0  0  0  0  0  0
   26.1230    8.3870   15.8610 N   0  0  0  0  0  0  0  0  0  0  0  0
   27.3200    8.1880   16.5260 C   0  0  0  0  0  0  0  0  0  0  0  0
   27.6090    8.6700   17.6140 O   0  0  0  0  0  0  0  0  0  0  0  0
   26.0760    8.0310   14.9440 H   0  0  0  0  0  0  0  0  0  0  0  0
   28.2810    7.2880   15.8450 C   0  0  0  0  0  0  0  0  0  0  0  0
   27.8940    6.0080   15.4870 C   0  0  0  0  0  0  0  0  0  0  0  0
   28.8320    5.2100   14.8560 C   0  0  0  0  0  0  0  0  0  0  0  0
   30.0970    5.7040   14.6020 C   0  0  0  0  0  0  0  0  0  0  0  0
   31.0430    4.9630   14.0000 F   0  0  0  0  0  0  0  0  0  0  0  0
   30.3890    6.9880   15.0010 C   0  0  0  0  0  0  0  0  0  0  0  0
   29.5020    7.7840   15.6210 N   0  0  0  0  0  0  0  0  0  0  0  0
  8  9  1  0
  9 10  1  0
 10 11  1  0
 10 12  2  0
 12 13  1  0
 13 14  1  0
 13  1  1  0
  1  2  2  0
  2  3  1  0
  3 21  1  0
 21 22  1  0
 22 23  2  0
 22 25  1  0
 25 26  2  0
 26 27  1  0
 27 28  2  0
 28 29  1  0
 28 30  1  0
 30 31  2  0
  3  4  2  0
  4  5  1  0
  5  6  2  0
  6  7  1  0
 13 15  1  0
 15 16  1  0
 16 17  2  0
 16 18  2  0
 16  9  1  0
  6  1  1  0
 31 25  1  0
 11 19  1  0
 11 20  1  0
 21 24  1  0
M  END
> <meeko>
{"is_sidechain": false}

> <source_group>
BACE1-457

> <source_system>
BACE1_verubecestat

> <source_run>
alternate_457_seed4409_ex32

> <source_seed>
4409

> <vina_pose_rank>
3

> <vina_affinity_kcal_mol>
-7.9989999999999997

> <vina_rmsd_to_crystal_angstrom>
6.516

> <minimizedAffinity>
-7.89884

> <CNNscore>
0.1442886591

> <CNNaffinity>
4.4315800667

> <CNN_VS>
0.6394267678

> <CNNaffinity_variance>
1.1573133469

$$$$
BACE1_verubecestat__alternate_457_seed4409_ex32__pose04


 31 33  0  0  0  0  0  0  0  0999 V2000
   26.3620   12.7070   21.7980 C   0  0  0  0  0  0  0  0  0  0  0  0
   25.4340   12.2620   22.7390 C   0  0  0  0  0  0  0  0  0  0  0  0
   25.3750   12.7770   24.0140 C   0  0  0  0  0  0  0  0  0  0  0  0
   26.2710   13.7600   24.4180 C   0  0  0  0  0  0  0  0  0  0  0  0
   27.1960   14.2150   23.4960 C   0  0  0  0  0  0  0  0  0  0  0  0
   27.2220   13.7120   22.2100 C   0  0  0  0  0  0  0  0  0  0  0  0
   28.1210   14.1970   21.3150 F   0  0  0  0  0  0  0  0  0  0  0  0
   22.2790   13.0550   19.4820 C   0  0  0  0  0  0  0  0  0  0  0  0
   23.7020   12.7110   19.6720 N   0  0  0  0  0  0  0  0  0  0  0  0
   24.1480   11.3950   19.9270 C   0  0  0  0  0  0  0  0  0  0  0  0
   23.1650   10.4470   19.8320 N   0  0  0  0  0  0  0  0  0  0  0  0
   25.3790   11.0910   20.2030 N   0  0  0  0  0  0  0  0  0  0  0  0
   26.3990   12.1200   20.3950 C   0  0  0  0  0  0  0  0  0  0  0  0
   27.7070   11.3430   20.2200 C   0  0  0  0  0  0  0  0  0  0  0  0
   26.3320   13.1330   19.2750 C   0  0  0  0  0  0  0  0  0  0  0  0
   24.7830   13.9990   19.3040 S   0  0  0  0  0  0  0  0  0  0  0  0
   24.5120   14.4100   17.9380 O   0  0  0  0  0  0  0  0  0  0  0  0
   24.6830   14.8640   20.4380 O   0  0  0  0  0  0  0  0  0  0  0  0
   23.3780    9.4990   19.9930 H   0  0  0  0  0  0  0  0  0  0  0  0
   22.2450   10.7120   19.6030 H   0  0  0  0  0  0  0  0  0  0  0  0
   24.3980   12.2410   24.8630 N   0  0  0  0  0  0  0  0  0  0  0  0
   23.0740   12.6220   24.9940 C   0  0  0  0  0  0  0  0  0  0  0  0
   22.5670   13.6010   24.4630 O   0  0  0  0  0  0  0  0  0  0  0  0
   24.6910   11.4990   25.4400 H   0  0  0  0  0  0  0  0  0  0  0  0
   22.2360   11.7230   25.8240 C   0  0  0  0  0  0  0  0  0  0  0  0
   21.5830   10.6520   25.2400 C   0  0  0  0  0  0  0  0  0  0  0  0
   20.8130    9.8470   26.0610 C   0  0  0  0  0  0  0  0  0  0  0  0
   20.7230   10.1270   27.4110 C   0  0  0  0  0  0  0  0  0  0  0  0
   19.9810    9.3800   28.2450 F   0  0  0  0  0  0  0  0  0  0  0  0
   21.4050   11.2190   27.8980 C   0  0  0  0  0  0  0  0  0  0  0  0
   22.1560   12.0210   27.1250 N   0  0  0  0  0  0  0  0  0  0  0  0
  8  9  1  0
  9 10  1  0
 10 11  1  0
 10 12  2  0
 12 13  1  0
 13 14  1  0
 13  1  1  0
  1  2  2  0
  2  3  1  0
  3 21  1  0
 21 22  1  0
 22 23  2  0
 22 25  1  0
 25 26  2  0
 26 27  1  0
 27 28  2  0
 28 29  1  0
 28 30  1  0
 30 31  2  0
  3  4  2  0
  4  5  1  0
  5  6  2  0
  6  7  1  0
 13 15  1  0
 15 16  1  0
 16 17  2  0
 16 18  2  0
 16  9  1  0
  6  1  1  0
 31 25  1  0
 11 19  1  0
 11 20  1  0
 21 24  1  0
M  END
> <meeko>
{"is_sidechain": false}

> <source_group>
BACE1-457

> <source_system>
BACE1_verubecestat

> <source_run>
alternate_457_seed4409_ex32

> <source_seed>
4409

> <vina_pose_rank>
4

> <vina_affinity_kcal_mol>
-7.8479999999999999

> <vina_rmsd_to_crystal_angstrom>
7.1272000000000002

> <minimizedAffinity>
-7.61606

> <CNNscore>
0.0396500565

> <CNNaffinity>
4.0778164864

> <CNN_VS>
0.1616856605

> <CNNaffinity_variance>
1.4260061979

$$$$
BACE1_verubecestat__alternate_457_seed4409_ex32__pose05


 31 33  0  0  0  0  0  0  0  0999 V2000
   23.6910   12.1110   20.1330 C   0  0  0  0  0  0  0  0  0  0  0  0
   23.2380   10.8260   19.8390 C   0  0  0  0  0  0  0  0  0  0  0  0
   22.6540   10.0170   20.7870 C   0  0  0  0  0  0  0  0  0  0  0  0
   22.5160   10.4550   22.0980 C   0  0  0  0  0  0  0  0  0  0  0  0
   22.9580   11.7290   22.4070 C   0  0  0  0  0  0  0  0  0  0  0  0
   23.5120   12.5430   21.4390 C   0  0  0  0  0  0  0  0  0  0  0  0
   23.9110   13.8000   21.7610 F   0  0  0  0  0  0  0  0  0  0  0  0
   21.0080   12.6940   16.3110 C   0  0  0  0  0  0  0  0  0  0  0  0
   22.1870   12.8850   17.1780 N   0  0  0  0  0  0  0  0  0  0  0  0
   23.4150   12.2200   16.9660 C   0  0  0  0  0  0  0  0  0  0  0  0
   23.4640   11.5020   15.8010 N   0  0  0  0  0  0  0  0  0  0  0  0
   24.4250   12.2920   17.7780 N   0  0  0  0  0  0  0  0  0  0  0  0
   24.3290   12.9830   19.0630 C   0  0  0  0  0  0  0  0  0  0  0  0
   25.7950   13.2250   19.4310 C   0  0  0  0  0  0  0  0  0  0  0  0
   23.6890   14.3400   18.8760 C   0  0  0  0  0  0  0  0  0  0  0  0
   22.0150   14.1710   18.3090 S   0  0  0  0  0  0  0  0  0  0  0  0
   21.7110   15.3720   17.5520 O   0  0  0  0  0  0  0  0  0  0  0  0
   21.1680   13.6250   19.3230 O   0  0  0  0  0  0  0  0  0  0  0  0
   24.2790   11.0030   15.5640 H   0  0  0  0  0  0  0  0  0  0  0  0
   22.6840   11.4850   15.2000 H   0  0  0  0  0  0  0  0  0  0  0  0
   22.2440    8.7470   20.3620 N   0  0  0  0  0  0  0  0  0  0  0  0
   21.4920    8.4170   19.2480 C   0  0  0  0  0  0  0  0  0  0  0  0
   20.9430    9.2210   18.5060 O   0  0  0  0  0  0  0  0  0  0  0  0
   22.5270    7.9920   20.9270 H   0  0  0  0  0  0  0  0  0  0  0  0
   21.4020    6.9670   18.9510 C   0  0  0  0  0  0  0  0  0  0  0  0
   22.5560    6.2100   18.8460 C   0  0  0  0  0  0  0  0  0  0  0  0
   22.4130    4.8620   18.5660 C   0  0  0  0  0  0  0  0  0  0  0  0
   21.1510    4.3230   18.4060 C   0  0  0  0  0  0  0  0  0  0  0  0
   20.9640    3.0220   18.1240 F   0  0  0  0  0  0  0  0  0  0  0  0
   20.0640    5.1580   18.5230 C   0  0  0  0  0  0  0  0  0  0  0  0
   20.1710    6.4710   18.7890 N   0  0  0  0  0  0  0  0  0  0  0  0
  8  9  1  0
  9 10  1  0
 10 11  1  0
 10 12  2  0
 12 13  1  0
 13 14  1  0
 13  1  1  0
  1  2  2  0
  2  3  1  0
  3 21  1  0
 21 22  1  0
 22 23  2  0
 22 25  1  0
 25 26  2  0
 26 27  1  0
 27 28  2  0
 28 29  1  0
 28 30  1  0
 30 31  2  0
  3  4  2  0
  4  5  1  0
  5  6  2  0
  6  7  1  0
 13 15  1  0
 15 16  1  0
 16 17  2  0
 16 18  2  0
 16  9  1  0
  6  1  1  0
 31 25  1  0
 11 19  1  0
 11 20  1  0
 21 24  1  0
M  END
> <meeko>
{"is_sidechain": false}

> <source_group>
BACE1-457

> <source_system>
BACE1_verubecestat

> <source_run>
alternate_457_seed4409_ex32

> <source_seed>
4409

> <vina_pose_rank>
5

> <vina_affinity_kcal_mol>
-7.6500000000000004

> <vina_rmsd_to_crystal_angstrom>
7.2652999999999999

> <minimizedAffinity>
-7.59551

> <CNNscore>
0.1828554869

> <CNNaffinity>
4.9909000397

> <CNN_VS>
0.9126134515

> <CNNaffinity_variance>
0.4581639767

$$$$
BACE1_verubecestat__alternate_457_seed4409_ex32__pose06


 31 33  0  0  0  0  0  0  0  0999 V2000
   24.8750   11.5920   20.9370 C   0  0  0  0  0  0  0  0  0  0  0  0
   24.4070   10.3220   20.6000 C   0  0  0  0  0  0  0  0  0  0  0  0
   23.1240    9.9120   20.8840 C   0  0  0  0  0  0  0  0  0  0  0  0
   22.2450   10.7590   21.5480 C   0  0  0  0  0  0  0  0  0  0  0  0
   22.6920   12.0240   21.8870 C   0  0  0  0  0  0  0  0  0  0  0  0
   23.9720   12.4330   21.5670 C   0  0  0  0  0  0  0  0  0  0  0  0
   24.3760   13.6900   21.8840 F   0  0  0  0  0  0  0  0  0  0  0  0
   26.0480   10.9540   16.4240 C   0  0  0  0  0  0  0  0  0  0  0  0
   26.2410   11.3770   17.8250 N   0  0  0  0  0  0  0  0  0  0  0  0
   26.9850   10.6260   18.7610 C   0  0  0  0  0  0  0  0  0  0  0  0
   27.6380    9.5520   18.2170 N   0  0  0  0  0  0  0  0  0  0  0  0
   27.0740   10.9250   20.0200 N   0  0  0  0  0  0  0  0  0  0  0  0
   26.2980   12.0160   20.6060 C   0  0  0  0  0  0  0  0  0  0  0  0
   27.0430   12.3050   21.9120 C   0  0  0  0  0  0  0  0  0  0  0  0
   26.4130   13.2560   19.7470 C   0  0  0  0  0  0  0  0  0  0  0  0
   25.6970   12.9790   18.1470 S   0  0  0  0  0  0  0  0  0  0  0  0
   26.3900   13.8610   17.2250 O   0  0  0  0  0  0  0  0  0  0  0  0
   24.2750   12.8490   18.2210 O   0  0  0  0  0  0  0  0  0  0  0  0
   28.1850    8.9660   18.7910 H   0  0  0  0  0  0  0  0  0  0  0  0
   27.5620    9.3650   17.2540 H   0  0  0  0  0  0  0  0  0  0  0  0
   22.7800    8.6110   20.4950 N   0  0  0  0  0  0  0  0  0  0  0  0
   21.9000    8.2180   19.5030 C   0  0  0  0  0  0  0  0  0  0  0  0
   21.1650    8.9690   18.8750 O   0  0  0  0  0  0  0  0  0  0  0  0
   23.2220    7.8840   20.9910 H   0  0  0  0  0  0  0  0  0  0  0  0
   21.9090    6.7690   19.1860 C   0  0  0  0  0  0  0  0  0  0  0  0
   22.6900    6.2930   18.1470 C   0  0  0  0  0  0  0  0  0  0  0  0
   22.6580    4.9320   17.8950 C   0  0  0  0  0  0  0  0  0  0  0  0
   21.8690    4.1070   18.6720 C   0  0  0  0  0  0  0  0  0  0  0  0
   21.7990    2.7820   18.4590 F   0  0  0  0  0  0  0  0  0  0  0  0
   21.1230    4.6750   19.6800 C   0  0  0  0  0  0  0  0  0  0  0  0
   21.1280    5.9920   19.9450 N   0  0  0  0  0  0  0  0  0  0  0  0
  8  9  1  0
  9 10  1  0
 10 11  1  0
 10 12  2  0
 12 13  1  0
 13 14  1  0
 13  1  1  0
  1  2  2  0
  2  3  1  0
  3 21  1  0
 21 22  1  0
 22 23  2  0
 22 25  1  0
 25 26  2  0
 26 27  1  0
 27 28  2  0
 28 29  1  0
 28 30  1  0
 30 31  2  0
  3  4  2  0
  4  5  1  0
  5  6  2  0
  6  7  1  0
 13 15  1  0
 15 16  1  0
 16 17  2  0
 16 18  2  0
 16  9  1  0
  6  1  1  0
 31 25  1  0
 11 19  1  0
 11 20  1  0
 21 24  1  0
M  END
> <meeko>
{"is_sidechain": false}

> <source_group>
BACE1-457

> <source_system>
BACE1_verubecestat

> <source_run>
alternate_457_seed4409_ex32

> <source_seed>
4409

> <vina_pose_rank>
6

> <vina_affinity_kcal_mol>
-7.4009999999999998

> <vina_rmsd_to_crystal_angstrom>
7.1609999999999996

> <minimizedAffinity>
-7.23732

> <CNNscore>
0.1070236489

> <CNNaffinity>
4.6210122108

> <CNN_VS>
0.4945575893

> <CNNaffinity_variance>
0.8621218204

$$$$
BACE1_verubecestat__alternate_457_seed4409_ex32__pose07


 31 33  0  0  0  0  0  0  0  0999 V2000
   24.2550    6.8720   14.8970 C   0  0  0  0  0  0  0  0  0  0  0  0
   24.0690    7.8230   15.8990 C   0  0  0  0  0  0  0  0  0  0  0  0
   23.4750    7.5170   17.1030 C   0  0  0  0  0  0  0  0  0  0  0  0
   23.0130    6.2310   17.3530 C   0  0  0  0  0  0  0  0  0  0  0  0
   23.1920    5.2740   16.3700 C   0  0  0  0  0  0  0  0  0  0  0  0
   23.8190    5.5870   15.1800 C   0  0  0  0  0  0  0  0  0  0  0  0
   24.0090    4.6220   14.2440 F   0  0  0  0  0  0  0  0  0  0  0  0
   28.7380    8.2350   15.3400 C   0  0  0  0  0  0  0  0  0  0  0  0
   27.4900    7.8990   14.6260 N   0  0  0  0  0  0  0  0  0  0  0  0
   26.6020    8.8770   14.1260 C   0  0  0  0  0  0  0  0  0  0  0  0
   27.0730   10.1580   14.2260 N   0  0  0  0  0  0  0  0  0  0  0  0
   25.4510    8.6020   13.5940 N   0  0  0  0  0  0  0  0  0  0  0  0
   24.9180    7.2410   13.5780 C   0  0  0  0  0  0  0  0  0  0  0  0
   23.8460    7.3050   12.4870 C   0  0  0  0  0  0  0  0  0  0  0  0
   25.9780    6.2730   13.1020 C   0  0  0  0  0  0  0  0  0  0  0  0
   27.3420    6.2290   14.2360 S   0  0  0  0  0  0  0  0  0  0  0  0
   28.5140    5.8630   13.4610 O   0  0  0  0  0  0  0  0  0  0  0  0
   26.9770    5.6190   15.4770 O   0  0  0  0  0  0  0  0  0  0  0  0
   26.5260   10.9110   13.9040 H   0  0  0  0  0  0  0  0  0  0  0  0
   27.9600   10.3280   14.6200 H   0  0  0  0  0  0  0  0  0  0  0  0
   23.3470    8.5650   18.0240 N   0  0  0  0  0  0  0  0  0  0  0  0
   22.2280    9.3300   18.3010 C   0  0  0  0  0  0  0  0  0  0  0  0
   21.1770    9.2930   17.6740 O   0  0  0  0  0  0  0  0  0  0  0  0
   24.1560    8.7850   18.5400 H   0  0  0  0  0  0  0  0  0  0  0  0
   22.3470   10.2240   19.4780 C   0  0  0  0  0  0  0  0  0  0  0  0
   22.3290    9.6910   20.7550 C   0  0  0  0  0  0  0  0  0  0  0  0
   22.4420   10.5700   21.8170 C   0  0  0  0  0  0  0  0  0  0  0  0
   22.5700   11.9250   21.5780 C   0  0  0  0  0  0  0  0  0  0  0  0
   22.6740   12.8180   22.5770 F   0  0  0  0  0  0  0  0  0  0  0  0
   22.5720   12.3600   20.2720 C   0  0  0  0  0  0  0  0  0  0  0  0
   22.4580   11.5310   19.2210 N   0  0  0  0  0  0  0  0  0  0  0  0
  8  9  1  0
  9 10  1  0
 10 11  1  0
 10 12  2  0
 12 13  1  0
 13 14  1  0
 13  1  1  0
  1  2  2  0
  2  3  1  0
  3 21  1  0
 21 22  1  0
 22 23  2  0
 22 25  1  0
 25 26  2  0
 26 27  1  0
 27 28  2  0
 28 29  1  0
 28 30  1  0
 30 31  2  0
  3  4  2  0
  4  5  1  0
  5  6  2  0
  6  7  1  0
 13 15  1  0
 15 16  1  0
 16 17  2  0
 16 18  2  0
 16  9  1  0
  6  1  1  0
 31 25  1  0
 11 19  1  0
 11 20  1  0
 21 24  1  0
M  END
> <meeko>
{"is_sidechain": false}

> <source_group>
BACE1-457

> <source_system>
BACE1_verubecestat

> <source_run>
alternate_457_seed4409_ex32

> <source_seed>
4409

> <vina_pose_rank>
7

> <vina_affinity_kcal_mol>
-7.2889999999999997

> <vina_rmsd_to_crystal_angstrom>
9.0580999999999996

> <minimizedAffinity>
-7.16389

> <CNNscore>
0.1623216718

> <CNNaffinity>
4.9768390656

> <CNN_VS>
0.8078488111

> <CNNaffinity_variance>
0.3556914330

$$$$
BACE1_verubecestat__alternate_457_seed4409_ex32__pose08


 31 33  0  0  0  0  0  0  0  0999 V2000
   23.0070    9.9700   18.8560 C   0  0  0  0  0  0  0  0  0  0  0  0
   22.6360    9.9720   20.1990 C   0  0  0  0  0  0  0  0  0  0  0  0
   23.5360   10.2210   21.2110 C   0  0  0  0  0  0  0  0  0  0  0  0
   24.8730   10.4600   20.9200 C   0  0  0  0  0  0  0  0  0  0  0  0
   25.2590   10.4650   19.5920 C   0  0  0  0  0  0  0  0  0  0  0  0
   24.3390   10.2460   18.5850 C   0  0  0  0  0  0  0  0  0  0  0  0
   24.7380   10.2850   17.2880 F   0  0  0  0  0  0  0  0  0  0  0  0
   23.0780    5.5410   17.2670 C   0  0  0  0  0  0  0  0  0  0  0  0
   22.6040    6.9350   17.3650 N   0  0  0  0  0  0  0  0  0  0  0  0
   22.9330    7.9290   16.4170 C   0  0  0  0  0  0  0  0  0  0  0  0
   23.6010    7.4520   15.3210 N   0  0  0  0  0  0  0  0  0  0  0  0
   22.6170    9.1810   16.5440 N   0  0  0  0  0  0  0  0  0  0  0  0
   21.9890    9.6950   17.7600 C   0  0  0  0  0  0  0  0  0  0  0  0
   21.3870   11.0250   17.3000 C   0  0  0  0  0  0  0  0  0  0  0  0
   20.8370    8.8030   18.1660 C   0  0  0  0  0  0  0  0  0  0  0  0
   21.4180    7.1800   18.5880 S   0  0  0  0  0  0  0  0  0  0  0  0
   20.3240    6.2650   18.3160 O   0  0  0  0  0  0  0  0  0  0  0  0
   22.1740    7.1900   19.8010 O   0  0  0  0  0  0  0  0  0  0  0  0
   23.8730    8.0690   14.6030 H   0  0  0  0  0  0  0  0  0  0  0  0
   23.8080    6.4920   15.2500 H   0  0  0  0  0  0  0  0  0  0  0  0
   23.0340   10.1910   22.5190 N   0  0  0  0  0  0  0  0  0  0  0  0
   22.6320   11.2550   23.3070 C   0  0  0  0  0  0  0  0  0  0  0  0
   22.7760   12.4370   23.0220 O   0  0  0  0  0  0  0  0  0  0  0  0
   22.9570    9.2990   22.9290 H   0  0  0  0  0  0  0  0  0  0  0  0
   21.9480   10.8850   24.5700 C   0  0  0  0  0  0  0  0  0  0  0  0
   21.5860   11.8680   25.4740 C   0  0  0  0  0  0  0  0  0  0  0  0
   20.9510   11.4660   26.6360 C   0  0  0  0  0  0  0  0  0  0  0  0
   20.7000   10.1250   26.8540 C   0  0  0  0  0  0  0  0  0  0  0  0
   20.0960    9.6870   27.9720 F   0  0  0  0  0  0  0  0  0  0  0  0
   21.1040    9.2210   25.8980 C   0  0  0  0  0  0  0  0  0  0  0  0
   21.7260    9.5800   24.7630 N   0  0  0  0  0  0  0  0  0  0  0  0
  8  9  1  0
  9 10  1  0
 10 11  1  0
 10 12  2  0
 12 13  1  0
 13 14  1  0
 13  1  1  0
  1  2  2  0
  2  3  1  0
  3 21  1  0
 21 22  1  0
 22 23  2  0
 22 25  1  0
 25 26  2  0
 26 27  1  0
 27 28  2  0
 28 29  1  0
 28 30  1  0
 30 31  2  0
  3  4  2  0
  4  5  1  0
  5  6  2  0
  6  7  1  0
 13 15  1  0
 15 16  1  0
 16 17  2  0
 16 18  2  0
 16  9  1  0
  6  1  1  0
 31 25  1  0
 11 19  1  0
 11 20  1  0
 21 24  1  0
M  END
> <meeko>
{"is_sidechain": false}

> <source_group>
BACE1-457

> <source_system>
BACE1_verubecestat

> <source_run>
alternate_457_seed4409_ex32

> <source_seed>
4409

> <vina_pose_rank>
8

> <vina_affinity_kcal_mol>
-7.2690000000000001

> <vina_rmsd_to_crystal_angstrom>
6.9931999999999999

> <minimizedAffinity>
-7.68311

> <CNNscore>
0.1362852007

> <CNNaffinity>
4.7675185204

> <CNN_VS>
0.6497422457

> <CNNaffinity_variance>
0.8174700737

$$$$
BACE1_verubecestat__alternate_457_seed4409_ex32__pose09


 31 33  0  0  0  0  0  0  0  0999 V2000
   21.6110    8.2000   17.2010 C   0  0  0  0  0  0  0  0  0  0  0  0
   21.8390    8.8150   18.4310 C   0  0  0  0  0  0  0  0  0  0  0  0
   22.1110    8.0980   19.5740 C   0  0  0  0  0  0  0  0  0  0  0  0
   22.1470    6.7100   19.5410 C   0  0  0  0  0  0  0  0  0  0  0  0
   21.9260    6.0820   18.3280 C   0  0  0  0  0  0  0  0  0  0  0  0
   21.6860    6.8150   17.1830 C   0  0  0  0  0  0  0  0  0  0  0  0
   21.5020    6.1760   16.0000 F   0  0  0  0  0  0  0  0  0  0  0  0
   24.6940   11.6720   16.4360 C   0  0  0  0  0  0  0  0  0  0  0  0
   23.5270   10.8130   16.1560 N   0  0  0  0  0  0  0  0  0  0  0  0
   22.1960   11.2210   16.3950 C   0  0  0  0  0  0  0  0  0  0  0  0
   22.0750   12.5340   16.7640 N   0  0  0  0  0  0  0  0  0  0  0  0
   21.1670   10.4430   16.2570 N   0  0  0  0  0  0  0  0  0  0  0  0
   21.3150    9.0200   15.9550 C   0  0  0  0  0  0  0  0  0  0  0  0
   19.9290    8.6360   15.4280 C   0  0  0  0  0  0  0  0  0  0  0  0
   22.2910    8.8300   14.8160 C   0  0  0  0  0  0  0  0  0  0  0  0
   23.9130    9.3810   15.2810 S   0  0  0  0  0  0  0  0  0  0  0  0
   24.5780    9.7910   14.0570 O   0  0  0  0  0  0  0  0  0  0  0  0
   24.4980    8.5260   16.2660 O   0  0  0  0  0  0  0  0  0  0  0  0
   21.1860   12.9120   16.9530 H   0  0  0  0  0  0  0  0  0  0  0  0
   22.8770   13.1000   16.8410 H   0  0  0  0  0  0  0  0  0  0  0  0
   22.3180    8.8390   20.7450 N   0  0  0  0  0  0  0  0  0  0  0  0
   23.2630    9.8220   20.9810 C   0  0  0  0  0  0  0  0  0  0  0  0
   24.1760   10.1190   20.2220 O   0  0  0  0  0  0  0  0  0  0  0  0
   21.7150    8.6330   21.4950 H   0  0  0  0  0  0  0  0  0  0  0  0
   23.0930   10.5700   22.2510 C   0  0  0  0  0  0  0  0  0  0  0  0
   22.7180   11.9020   22.2230 C   0  0  0  0  0  0  0  0  0  0  0  0
   22.5770   12.5520   23.4370 C   0  0  0  0  0  0  0  0  0  0  0  0
   22.8060   11.8670   24.6140 C   0  0  0  0  0  0  0  0  0  0  0  0
   22.6900   12.4580   25.8160 F   0  0  0  0  0  0  0  0  0  0  0  0
   23.1810   10.5450   24.5390 C   0  0  0  0  0  0  0  0  0  0  0  0
   23.3320    9.8890   23.3770 N   0  0  0  0  0  0  0  0  0  0  0  0
  8  9  1  0
  9 10  1  0
 10 11  1  0
 10 12  2  0
 12 13  1  0
 13 14  1  0
 13  1  1  0
  1  2  2  0
  2  3  1  0
  3 21  1  0
 21 22  1  0
 22 23  2  0
 22 25  1  0
 25 26  2  0
 26 27  1  0
 27 28  2  0
 28 29  1  0
 28 30  1  0
 30 31  2  0
  3  4  2  0
  4  5  1  0
  5  6  2  0
  6  7  1  0
 13 15  1  0
 15 16  1  0
 16 17  2  0
 16 18  2  0
 16  9  1  0
  6  1  1  0
 31 25  1  0
 11 19  1  0
 11 20  1  0
 21 24  1  0
M  END
> <meeko>
{"is_sidechain": false}

> <source_group>
BACE1-457

> <source_system>
BACE1_verubecestat

> <source_run>
alternate_457_seed4409_ex32

> <source_seed>
4409

> <vina_pose_rank>
9

> <vina_affinity_kcal_mol>
-7.2329999999999997

> <vina_rmsd_to_crystal_angstrom>
6.9478999999999997

> <minimizedAffinity>
-7.16720

> <CNNscore>
0.1271791756

> <CNNaffinity>
5.0250577927

> <CNN_VS>
0.6390827298

> <CNNaffinity_variance>
0.3525286615

$$$$
BACE1_verubecestat__alternate_457_seed4409_ex32__pose10


 31 33  0  0  0  0  0  0  0  0999 V2000
   22.6760    9.1400   17.4070 C   0  0  0  0  0  0  0  0  0  0  0  0
   22.6130    9.5290   18.7440 C   0  0  0  0  0  0  0  0  0  0  0  0
   23.6820   10.0980   19.3970 C   0  0  0  0  0  0  0  0  0  0  0  0
   24.8900   10.2860   18.7370 C   0  0  0  0  0  0  0  0  0  0  0  0
   24.9710    9.9080   17.4080 C   0  0  0  0  0  0  0  0  0  0  0  0
   23.8790    9.3680   16.7570 C   0  0  0  0  0  0  0  0  0  0  0  0
   23.9760    9.0330   15.4450 F   0  0  0  0  0  0  0  0  0  0  0  0
   22.6260    4.4360   17.5580 C   0  0  0  0  0  0  0  0  0  0  0  0
   22.1200    5.7850   17.2350 N   0  0  0  0  0  0  0  0  0  0  0  0
   22.2130    6.3530   15.9440 C   0  0  0  0  0  0  0  0  0  0  0  0
   22.6720    5.4880   14.9880 N   0  0  0  0  0  0  0  0  0  0  0  0
   21.8740    7.5740   15.6680 N   0  0  0  0  0  0  0  0  0  0  0  0
   21.4750    8.5160   16.7130 C   0  0  0  0  0  0  0  0  0  0  0  0
   20.7370    9.6050   15.9300 C   0  0  0  0  0  0  0  0  0  0  0  0
   20.4650    7.8720   17.6350 C   0  0  0  0  0  0  0  0  0  0  0  0
   21.1880    6.4970   18.4940 S   0  0  0  0  0  0  0  0  0  0  0  0
   20.1030    5.5800   18.7970 O   0  0  0  0  0  0  0  0  0  0  0  0
   22.1670    6.9240   19.4450 O   0  0  0  0  0  0  0  0  0  0  0  0
   22.7710    5.7910   14.0570 H   0  0  0  0  0  0  0  0  0  0  0  0
   22.9030    4.5620   15.2310 H   0  0  0  0  0  0  0  0  0  0  0  0
   23.4870   10.4410   20.7410 N   0  0  0  0  0  0  0  0  0  0  0  0
   22.8690   11.5660   21.2580 C   0  0  0  0  0  0  0  0  0  0  0  0
   22.4970   12.5300   20.6000 O   0  0  0  0  0  0  0  0  0  0  0  0
   23.8330    9.8000   21.4030 H   0  0  0  0  0  0  0  0  0  0  0  0
   22.6290   11.5420   22.7210 C   0  0  0  0  0  0  0  0  0  0  0  0
   22.5870   12.7280   23.4340 C   0  0  0  0  0  0  0  0  0  0  0  0
   22.3620   12.6460   24.7970 C   0  0  0  0  0  0  0  0  0  0  0  0
   22.1870   11.4120   25.3930 C   0  0  0  0  0  0  0  0  0  0  0  0
   21.9750   11.2830   26.7140 F   0  0  0  0  0  0  0  0  0  0  0  0
   22.2530   10.2890   24.6000 C   0  0  0  0  0  0  0  0  0  0  0  0
   22.4750   10.3360   23.2760 N   0  0  0  0  0  0  0  0  0  0  0  0
  8  9  1  0
  9 10  1  0
 10 11  1  0
 10 12  2  0
 12 13  1  0
 13 14  1  0
 13  1  1  0
  1  2  2  0
  2  3  1  0
  3 21  1  0
 21 22  1  0
 22 23  2  0
 22 25  1  0
 25 26  2  0
 26 27  1  0
 27 28  2  0
 28 29  1  0
 28 30  1  0
 30 31  2  0
  3  4  2  0
  4  5  1  0
  5  6  2  0
  6  7  1  0
 13 15  1  0
 15 16  1  0
 16 17  2  0
 16 18  2  0
 16  9  1  0
  6  1  1  0
 31 25  1  0
 11 19  1  0
 11 20  1  0
 21 24  1  0
M  END
> <meeko>
{"is_sidechain": false}

> <source_group>
BACE1-457

> <source_system>
BACE1_verubecestat

> <source_run>
alternate_457_seed4409_ex32

> <source_seed>
4409

> <vina_pose_rank>
10

> <vina_affinity_kcal_mol>
-7.1459999999999999

> <vina_rmsd_to_crystal_angstrom>
6.8307000000000002

> <minimizedAffinity>
-7.60184

> <CNNscore>
0.0835105255

> <CNNaffinity>
4.4175271988

> <CNN_VS>
0.3689100146

> <CNNaffinity_variance>
1.0414206982

$$$$
BACE1_verubecestat__alternate_457_seed4409_ex32__pose11


 31 33  0  0  0  0  0  0  0  0999 V2000
   27.7440   14.1050   21.6780 C   0  0  0  0  0  0  0  0  0  0  0  0
   26.8050   13.3130   22.3370 C   0  0  0  0  0  0  0  0  0  0  0  0
   25.4870   13.6890   22.4680 C   0  0  0  0  0  0  0  0  0  0  0  0
   25.0480   14.9040   21.9570 C   0  0  0  0  0  0  0  0  0  0  0  0
   25.9660   15.7020   21.2970 C   0  0  0  0  0  0  0  0  0  0  0  0
   27.2770   15.2970   21.1450 C   0  0  0  0  0  0  0  0  0  0  0  0
   28.1510   16.0840   20.4670 F   0  0  0  0  0  0  0  0  0  0  0  0
   28.2460    9.7530   19.9580 C   0  0  0  0  0  0  0  0  0  0  0  0
   28.6890   11.0660   20.4670 N   0  0  0  0  0  0  0  0  0  0  0  0
   29.1650   11.2610   21.7830 C   0  0  0  0  0  0  0  0  0  0  0  0
   29.3240   10.1010   22.4930 N   0  0  0  0  0  0  0  0  0  0  0  0
   29.4550   12.4230   22.2800 N   0  0  0  0  0  0  0  0  0  0  0  0
   29.1920   13.6600   21.5470 C   0  0  0  0  0  0  0  0  0  0  0  0
   30.0880   14.6780   22.2580 C   0  0  0  0  0  0  0  0  0  0  0  0
   29.6990   13.5400   20.1270 C   0  0  0  0  0  0  0  0  0  0  0  0
   28.8130   12.2770   19.2490 S   0  0  0  0  0  0  0  0  0  0  0  0
   29.7140   11.7700   18.2300 O   0  0  0  0  0  0  0  0  0  0  0  0
   27.4560   12.6570   19.0060 O   0  0  0  0  0  0  0  0  0  0  0  0
   29.6520   10.1340   23.4210 H   0  0  0  0  0  0  0  0  0  0  0  0
   29.1110    9.2350   22.0770 H   0  0  0  0  0  0  0  0  0  0  0  0
   24.6470   12.8030   23.1550 N   0  0  0  0  0  0  0  0  0  0  0  0
   24.3930   12.7430   24.5140 C   0  0  0  0  0  0  0  0  0  0  0  0
   24.9790   13.3930   25.3700 O   0  0  0  0  0  0  0  0  0  0  0  0
   24.1770   12.1390   22.6000 H   0  0  0  0  0  0  0  0  0  0  0  0
   23.2930   11.8310   24.9130 C   0  0  0  0  0  0  0  0  0  0  0  0
   22.1750   12.3350   25.5540 C   0  0  0  0  0  0  0  0  0  0  0  0
   21.1810   11.4390   25.9050 C   0  0  0  0  0  0  0  0  0  0  0  0
   21.3280   10.0980   25.6090 C   0  0  0  0  0  0  0  0  0  0  0  0
   20.3930    9.1900   25.9380 F   0  0  0  0  0  0  0  0  0  0  0  0
   22.4790    9.6910   24.9730 C   0  0  0  0  0  0  0  0  0  0  0  0
   23.4640   10.5360   24.6260 N   0  0  0  0  0  0  0  0  0  0  0  0
  8  9  1  0
  9 10  1  0
 10 11  1  0
 10 12  2  0
 12 13  1  0
 13 14  1  0
 13  1  1  0
  1  2  2  0
  2  3  1  0
  3 21  1  0
 21 22  1  0
 22 23  2  0
 22 25  1  0
 25 26  2  0
 26 27  1  0
 27 28  2  0
 28 29  1  0
 28 30  1  0
 30 31  2  0
  3  4  2  0
  4  5  1  0
  5  6  2  0
  6  7  1  0
 13 15  1  0
 15 16  1  0
 16 17  2  0
 16 18  2  0
 16  9  1  0
  6  1  1  0
 31 25  1  0
 11 19  1  0
 11 20  1  0
 21 24  1  0
M  END
> <meeko>
{"is_sidechain": false}

> <source_group>
BACE1-457

> <source_system>
BACE1_verubecestat

> <source_run>
alternate_457_seed4409_ex32

> <source_seed>
4409

> <vina_pose_rank>
11

> <vina_affinity_kcal_mol>
-7.1420000000000003

> <vina_rmsd_to_crystal_angstrom>
7.7470999999999997

> <minimizedAffinity>
-6.98380

> <CNNscore>
0.0503434241

> <CNNaffinity>
4.0440483093

> <CNN_VS>
0.2035912424

> <CNNaffinity_variance>
1.2940267324

$$$$
BACE1_verubecestat__alternate_457_seed4409_ex32__pose12


 31 33  0  0  0  0  0  0  0  0999 V2000
   24.0480    6.6730   14.8880 C   0  0  0  0  0  0  0  0  0  0  0  0
   25.4270    6.8200   15.0240 C   0  0  0  0  0  0  0  0  0  0  0  0
   26.3070    6.4720   14.0230 C   0  0  0  0  0  0  0  0  0  0  0  0
   25.8390    5.9330   12.8320 C   0  0  0  0  0  0  0  0  0  0  0  0
   24.4720    5.7830   12.6780 C   0  0  0  0  0  0  0  0  0  0  0  0
   23.6000    6.1660   13.6780 C   0  0  0  0  0  0  0  0  0  0  0  0
   22.2610    6.0360   13.4910 F   0  0  0  0  0  0  0  0  0  0  0  0
   24.0350   11.2860   15.8210 C   0  0  0  0  0  0  0  0  0  0  0  0
   23.6190    9.8760   15.9600 N   0  0  0  0  0  0  0  0  0  0  0  0
   24.0610    9.0420   17.0110 C   0  0  0  0  0  0  0  0  0  0  0  0
   24.7860    9.6960   17.9710 N   0  0  0  0  0  0  0  0  0  0  0  0
   23.7940    7.7750   17.0880 N   0  0  0  0  0  0  0  0  0  0  0  0
   23.1020    7.0690   16.0110 C   0  0  0  0  0  0  0  0  0  0  0  0
   22.5960    5.8000   16.7030 C   0  0  0  0  0  0  0  0  0  0  0  0
   21.8830    7.8520   15.5760 C   0  0  0  0  0  0  0  0  0  0  0  0
   22.3570    9.4160   14.8820 S   0  0  0  0  0  0  0  0  0  0  0  0
   21.2470   10.3230   15.1090 O   0  0  0  0  0  0  0  0  0  0  0  0
   23.0220    9.2560   13.6270 O   0  0  0  0  0  0  0  0  0  0  0  0
   25.1380    9.2000   18.7450 H   0  0  0  0  0  0  0  0  0  0  0  0
   24.9540   10.6630   17.8880 H   0  0  0  0  0  0  0  0  0  0  0  0
   27.6680    6.6680   14.2890 N   0  0  0  0  0  0  0  0  0  0  0  0
   28.5530    5.8040   14.9100 C   0  0  0  0  0  0  0  0  0  0  0  0
   28.2450    4.7530   15.4560 O   0  0  0  0  0  0  0  0  0  0  0  0
   28.0440    7.5290   13.9950 H   0  0  0  0  0  0  0  0  0  0  0  0
   29.9780    6.2100   14.8540 C   0  0  0  0  0  0  0  0  0  0  0  0
   30.7690    5.8120   13.7900 C   0  0  0  0  0  0  0  0  0  0  0  0
   32.0920    6.2170   13.7900 C   0  0  0  0  0  0  0  0  0  0  0  0
   32.5740    6.9930   14.8260 C   0  0  0  0  0  0  0  0  0  0  0  0
   33.8530    7.4020   14.8740 F   0  0  0  0  0  0  0  0  0  0  0  0
   31.7120    7.3330   15.8440 C   0  0  0  0  0  0  0  0  0  0  0  0
   30.4250    6.9500   15.8750 N   0  0  0  0  0  0  0  0  0  0  0  0
  8  9  1  0
  9 10  1  0
 10 11  1  0
 10 12  2  0
 12 13  1  0
 13 14  1  0
 13  1  1  0
  1  2  2  0
  2  3  1  0
  3 21  1  0
 21 22  1  0
 22 23  2  0
 22 25  1  0
 25 26  2  0
 26 27  1  0
 27 28  2  0
 28 29  1  0
 28 30  1  0
 30 31  2  0
  3  4  2  0
  4  5  1  0
  5  6  2  0
  6  7  1  0
 13 15  1  0
 15 16  1  0
 16 17  2  0
 16 18  2  0
 16  9  1  0
  6  1  1  0
 31 25  1  0
 11 19  1  0
 11 20  1  0
 21 24  1  0
M  END
> <meeko>
{"is_sidechain": false}

> <source_group>
BACE1-457

> <source_system>
BACE1_verubecestat

> <source_run>
alternate_457_seed4409_ex32

> <source_seed>
4409

> <vina_pose_rank>
12

> <vina_affinity_kcal_mol>
-7.0590000000000002

> <vina_rmsd_to_crystal_angstrom>
7.9249999999999998

> <minimizedAffinity>
-6.95766

> <CNNscore>
0.1592263132

> <CNNaffinity>
4.7614245415

> <CNN_VS>
0.7581440806

> <CNNaffinity_variance>
0.6059628129

$$$$
BACE1_verubecestat__alternate_457_seed4409_ex32__pose13


 31 33  0  0  0  0  0  0  0  0999 V2000
   25.8920   13.3720   21.4230 C   0  0  0  0  0  0  0  0  0  0  0  0
   25.0380   12.8340   22.3840 C   0  0  0  0  0  0  0  0  0  0  0  0
   25.4160   12.6710   23.6970 C   0  0  0  0  0  0  0  0  0  0  0  0
   26.6940   13.0250   24.1100 C   0  0  0  0  0  0  0  0  0  0  0  0
   27.5550   13.5650   23.1710 C   0  0  0  0  0  0  0  0  0  0  0  0
   27.1510   13.7520   21.8640 C   0  0  0  0  0  0  0  0  0  0  0  0
   28.0050   14.3110   20.9680 F   0  0  0  0  0  0  0  0  0  0  0  0
   27.5060   10.0320   18.5270 C   0  0  0  0  0  0  0  0  0  0  0  0
   26.7420   11.2350   18.9130 N   0  0  0  0  0  0  0  0  0  0  0  0
   27.1790   12.5480   18.6330 C   0  0  0  0  0  0  0  0  0  0  0  0
   28.2950   12.6060   17.8410 N   0  0  0  0  0  0  0  0  0  0  0  0
   26.5770   13.6160   19.0590 N   0  0  0  0  0  0  0  0  0  0  0  0
   25.4440   13.5420   19.9800 C   0  0  0  0  0  0  0  0  0  0  0  0
   24.7870   14.9170   19.8250 C   0  0  0  0  0  0  0  0  0  0  0  0
   24.4450   12.5160   19.4940 C   0  0  0  0  0  0  0  0  0  0  0  0
   25.1600   10.8920   19.5010 S   0  0  0  0  0  0  0  0  0  0  0  0
   24.4740   10.1320   18.4720 O   0  0  0  0  0  0  0  0  0  0  0  0
   25.3860   10.4210   20.8320 O   0  0  0  0  0  0  0  0  0  0  0  0
   28.6760   13.4780   17.5910 H   0  0  0  0  0  0  0  0  0  0  0  0
   28.7150   11.7740   17.5220 H   0  0  0  0  0  0  0  0  0  0  0  0
   24.4620   12.1150   24.5610 N   0  0  0  0  0  0  0  0  0  0  0  0
   23.2230   12.6220   24.9090 C   0  0  0  0  0  0  0  0  0  0  0  0
   22.8050   13.7320   24.6060 O   0  0  0  0  0  0  0  0  0  0  0  0
   24.7060   11.2540   24.9710 H   0  0  0  0  0  0  0  0  0  0  0  0
   22.3550   11.6980   25.6790 C   0  0  0  0  0  0  0  0  0  0  0  0
   21.8660   10.5500   25.0810 C   0  0  0  0  0  0  0  0  0  0  0  0
   21.0590    9.7250   25.8450 C   0  0  0  0  0  0  0  0  0  0  0  0
   20.7750   10.0620   27.1550 C   0  0  0  0  0  0  0  0  0  0  0  0
   19.9900    9.2970   27.9320 F   0  0  0  0  0  0  0  0  0  0  0  0
   21.3040   11.2280   27.6590 C   0  0  0  0  0  0  0  0  0  0  0  0
   22.0850   12.0510   26.9400 N   0  0  0  0  0  0  0  0  0  0  0  0
  8  9  1  0
  9 10  1  0
 10 11  1  0
 10 12  2  0
 12 13  1  0
 13 14  1  0
 13  1  1  0
  1  2  2  0
  2  3  1  0
  3 21  1  0
 21 22  1  0
 22 23  2  0
 22 25  1  0
 25 26  2  0
 26 27  1  0
 27 28  2  0
 28 29  1  0
 28 30  1  0
 30 31  2  0
  3  4  2  0
  4  5  1  0
  5  6  2  0
  6  7  1  0
 13 15  1  0
 15 16  1  0
 16 17  2  0
 16 18  2  0
 16  9  1  0
  6  1  1  0
 31 25  1  0
 11 19  1  0
 11 20  1  0
 21 24  1  0
M  END
> <meeko>
{"is_sidechain": false}

> <source_group>
BACE1-457

> <source_system>
BACE1_verubecestat

> <source_run>
alternate_457_seed4409_ex32

> <source_seed>
4409

> <vina_pose_rank>
13

> <vina_affinity_kcal_mol>
-6.9500000000000002

> <vina_rmsd_to_crystal_angstrom>
7.4332000000000003

> <minimizedAffinity>
-7.44417

> <CNNscore>
0.0465489216

> <CNNaffinity>
3.9916687012

> <CNN_VS>
0.1858078688

> <CNNaffinity_variance>
1.2924202681

$$$$
BACE1_verubecestat__alternate_457_seed4409_ex32__pose14


 31 33  0  0  0  0  0  0  0  0999 V2000
   22.3280   11.0290   15.8330 C   0  0  0  0  0  0  0  0  0  0  0  0
   22.4890   10.9090   17.2130 C   0  0  0  0  0  0  0  0  0  0  0  0
   21.8200   11.7160   18.1050 C   0  0  0  0  0  0  0  0  0  0  0  0
   20.9640   12.7110   17.6490 C   0  0  0  0  0  0  0  0  0  0  0  0
   20.7900   12.8420   16.2820 C   0  0  0  0  0  0  0  0  0  0  0  0
   21.4430   12.0040   15.4000 C   0  0  0  0  0  0  0  0  0  0  0  0
   21.2320   12.1350   14.0650 F   0  0  0  0  0  0  0  0  0  0  0  0
   21.5150    6.4460   16.5300 C   0  0  0  0  0  0  0  0  0  0  0  0
   22.0920    7.6320   15.8670 N   0  0  0  0  0  0  0  0  0  0  0  0
   23.4260    8.0520   16.0640 C   0  0  0  0  0  0  0  0  0  0  0  0
   24.1800    7.1790   16.8020 N   0  0  0  0  0  0  0  0  0  0  0  0
   23.9170    9.1500   15.5770 N   0  0  0  0  0  0  0  0  0  0  0  0
   23.0790   10.1190   14.8730 C   0  0  0  0  0  0  0  0  0  0  0  0
   24.1000   10.9550   14.0970 C   0  0  0  0  0  0  0  0  0  0  0  0
   22.2150    9.4140   13.8510 C   0  0  0  0  0  0  0  0  0  0  0  0
   21.0810    8.3050   14.6470 S   0  0  0  0  0  0  0  0  0  0  0  0
   20.7970    7.2480   13.6930 O   0  0  0  0  0  0  0  0  0  0  0  0
   20.0810    9.0130   15.3830 O   0  0  0  0  0  0  0  0  0  0  0  0
   25.1240    7.3840   16.9930 H   0  0  0  0  0  0  0  0  0  0  0  0
   23.7790    6.3460   17.1400 H   0  0  0  0  0  0  0  0  0  0  0  0
   22.0730   11.4930   19.4650 N   0  0  0  0  0  0  0  0  0  0  0  0
   22.8190   12.2670   20.3360 C   0  0  0  0  0  0  0  0  0  0  0  0
   23.5000   13.2310   20.0140 O   0  0  0  0  0  0  0  0  0  0  0  0
   21.6680   10.6820   19.8490 H   0  0  0  0  0  0  0  0  0  0  0  0
   22.7250   11.8800   21.7650 C   0  0  0  0  0  0  0  0  0  0  0  0
   22.5840   10.5480   22.1120 C   0  0  0  0  0  0  0  0  0  0  0  0
   22.5000   10.2440   23.4590 C   0  0  0  0  0  0  0  0  0  0  0  0
   22.5620   11.2560   24.3980 C   0  0  0  0  0  0  0  0  0  0  0  0
   22.4750   11.0100   25.7160 F   0  0  0  0  0  0  0  0  0  0  0  0
   22.6970   12.5520   23.9540 C   0  0  0  0  0  0  0  0  0  0  0  0
   22.7760   12.8780   22.6530 N   0  0  0  0  0  0  0  0  0  0  0  0
  8  9  1  0
  9 10  1  0
 10 11  1  0
 10 12  2  0
 12 13  1  0
 13 14  1  0
 13  1  1  0
  1  2  2  0
  2  3  1  0
  3 21  1  0
 21 22  1  0
 22 23  2  0
 22 25  1  0
 25 26  2  0
 26 27  1  0
 27 28  2  0
 28 29  1  0
 28 30  1  0
 30 31  2  0
  3  4  2  0
  4  5  1  0
  5  6  2  0
  6  7  1  0
 13 15  1  0
 15 16  1  0
 16 17  2  0
 16 18  2  0
 16  9  1  0
  6  1  1  0
 31 25  1  0
 11 19  1  0
 11 20  1  0
 21 24  1  0
M  END
> <meeko>
{"is_sidechain": false}

> <source_group>
BACE1-457

> <source_system>
BACE1_verubecestat

> <source_run>
alternate_457_seed4409_ex32

> <source_seed>
4409

> <vina_pose_rank>
14

> <vina_affinity_kcal_mol>
-6.9429999999999996

> <vina_rmsd_to_crystal_angstrom>
7.3781999999999996

> <minimizedAffinity>
-6.74085

> <CNNscore>
0.2615163922

> <CNNaffinity>
4.6837382317

> <CNN_VS>
1.2248743773

> <CNNaffinity_variance>
0.4494173527

$$$$
BACE1_verubecestat__alternate_457_seed4409_ex32__pose15


 31 33  0  0  0  0  0  0  0  0999 V2000
   23.7360   12.3290   21.1510 C   0  0  0  0  0  0  0  0  0  0  0  0
   23.3410   11.0870   20.6560 C   0  0  0  0  0  0  0  0  0  0  0  0
   22.6410   10.1800   21.4190 C   0  0  0  0  0  0  0  0  0  0  0  0
   22.3190   10.4700   22.7390 C   0  0  0  0  0  0  0  0  0  0  0  0
   22.7010   11.7000   23.2460 C   0  0  0  0  0  0  0  0  0  0  0  0
   23.3750   12.6130   22.4590 C   0  0  0  0  0  0  0  0  0  0  0  0
   23.7130   13.8240   22.9710 F   0  0  0  0  0  0  0  0  0  0  0  0
   28.2330   12.8740   22.4280 C   0  0  0  0  0  0  0  0  0  0  0  0
   27.0250   13.0830   21.6060 N   0  0  0  0  0  0  0  0  0  0  0  0
   26.2190   14.2390   21.7030 C   0  0  0  0  0  0  0  0  0  0  0  0
   26.7390   15.2130   22.5130 N   0  0  0  0  0  0  0  0  0  0  0  0
   25.0980   14.3920   21.0690 N   0  0  0  0  0  0  0  0  0  0  0  0
   24.5070   13.3110   20.2820 C   0  0  0  0  0  0  0  0  0  0  0  0
   23.5180   14.0480   19.3740 C   0  0  0  0  0  0  0  0  0  0  0  0
   25.5530   12.6890   19.3850 C   0  0  0  0  0  0  0  0  0  0  0  0
   26.8310   11.9220   20.3500 S   0  0  0  0  0  0  0  0  0  0  0  0
   28.0370   11.9570   19.5420 O   0  0  0  0  0  0  0  0  0  0  0  0
   26.3520   10.7600   21.0300 O   0  0  0  0  0  0  0  0  0  0  0  0
   26.2500   16.0570   22.6440 H   0  0  0  0  0  0  0  0  0  0  0  0
   27.6020   15.0690   22.9650 H   0  0  0  0  0  0  0  0  0  0  0  0
   22.3060    8.9670   20.8020 N   0  0  0  0  0  0  0  0  0  0  0  0
   21.7890    8.7640   19.5350 C   0  0  0  0  0  0  0  0  0  0  0  0
   21.4130    9.6490   18.7770 O   0  0  0  0  0  0  0  0  0  0  0  0
   22.4590    8.1560   21.3390 H   0  0  0  0  0  0  0  0  0  0  0  0
   21.7390    7.3500   19.0910 C   0  0  0  0  0  0  0  0  0  0  0  0
   22.4800    6.9440   17.9940 C   0  0  0  0  0  0  0  0  0  0  0  0
   22.3940    5.6130   17.6220 C   0  0  0  0  0  0  0  0  0  0  0  0
   21.5930    4.7480   18.3420 C   0  0  0  0  0  0  0  0  0  0  0  0
   21.4720    3.4510   18.0130 F   0  0  0  0  0  0  0  0  0  0  0  0
   20.8900    5.2480   19.4140 C   0  0  0  0  0  0  0  0  0  0  0  0
   20.9480    6.5340   19.7960 N   0  0  0  0  0  0  0  0  0  0  0  0
  8  9  1  0
  9 10  1  0
 10 11  1  0
 10 12  2  0
 12 13  1  0
 13 14  1  0
 13  1  1  0
  1  2  2  0
  2  3  1  0
  3 21  1  0
 21 22  1  0
 22 23  2  0
 22 25  1  0
 25 26  2  0
 26 27  1  0
 27 28  2  0
 28 29  1  0
 28 30  1  0
 30 31  2  0
  3  4  2  0
  4  5  1  0
  5  6  2  0
  6  7  1  0
 13 15  1  0
 15 16  1  0
 16 17  2  0
 16 18  2  0
 16  9  1  0
  6  1  1  0
 31 25  1  0
 11 19  1  0
 11 20  1  0
 21 24  1  0
M  END
> <meeko>
{"is_sidechain": false}

> <source_group>
BACE1-457

> <source_system>
BACE1_verubecestat

> <source_run>
alternate_457_seed4409_ex32

> <source_seed>
4409

> <vina_pose_rank>
15

> <vina_affinity_kcal_mol>
-6.9199999999999999

> <vina_rmsd_to_crystal_angstrom>
6.9062999999999999

> <minimizedAffinity>
-7.59912

> <CNNscore>
0.0698700175

> <CNNaffinity>
4.3493819237

> <CNN_VS>
0.3038913906

> <CNNaffinity_variance>
1.2152760029

$$$$
BACE1_verubecestat__alternate_457_seed4409_ex32__pose16


 31 33  0  0  0  0  0  0  0  0999 V2000
   25.1110   12.3090   22.3390 C   0  0  0  0  0  0  0  0  0  0  0  0
   24.5600   11.2090   21.6830 C   0  0  0  0  0  0  0  0  0  0  0  0
   23.2650   10.7960   21.9000 C   0  0  0  0  0  0  0  0  0  0  0  0
   22.4580   11.4610   22.8140 C   0  0  0  0  0  0  0  0  0  0  0  0
   22.9870   12.5570   23.4720 C   0  0  0  0  0  0  0  0  0  0  0  0
   24.2780   12.9800   23.2200 C   0  0  0  0  0  0  0  0  0  0  0  0
   24.7640   14.0770   23.8570 F   0  0  0  0  0  0  0  0  0  0  0  0
   26.1320   12.8150   17.7730 C   0  0  0  0  0  0  0  0  0  0  0  0
   26.3820   12.8510   19.2270 N   0  0  0  0  0  0  0  0  0  0  0  0
   27.1110   11.8510   19.9080 C   0  0  0  0  0  0  0  0  0  0  0  0
   27.6930   10.9280   19.0810 N   0  0  0  0  0  0  0  0  0  0  0  0
   27.2480   11.8090   21.1970 N   0  0  0  0  0  0  0  0  0  0  0  0
   26.5450   12.7430   22.0750 C   0  0  0  0  0  0  0  0  0  0  0  0
   27.3380   12.6490   23.3820 C   0  0  0  0  0  0  0  0  0  0  0  0
   26.7020   14.1570   21.5620 C   0  0  0  0  0  0  0  0  0  0  0  0
   25.9310   14.3360   19.9730 S   0  0  0  0  0  0  0  0  0  0  0  0
   26.6440   15.3970   19.2840 O   0  0  0  0  0  0  0  0  0  0  0  0
   24.5070   14.2530   20.0650 O   0  0  0  0  0  0  0  0  0  0  0  0
   28.2230   10.1900   19.4620 H   0  0  0  0  0  0  0  0  0  0  0  0
   27.5830   11.0010   18.1050 H   0  0  0  0  0  0  0  0  0  0  0  0
   22.8350    9.6740   21.1790 N   0  0  0  0  0  0  0  0  0  0  0  0
   22.2590    9.6330   19.9210 C   0  0  0  0  0  0  0  0  0  0  0  0
   21.9090   10.6120   19.2750 O   0  0  0  0  0  0  0  0  0  0  0  0
   22.9580    8.8050   21.6240 H   0  0  0  0  0  0  0  0  0  0  0  0
   22.1070    8.2780   19.3390 C   0  0  0  0  0  0  0  0  0  0  0  0
   22.8470    7.9170   18.2260 C   0  0  0  0  0  0  0  0  0  0  0  0
   22.6640    6.6410   17.7220 C   0  0  0  0  0  0  0  0  0  0  0  0
   21.7720    5.7820   18.3340 C   0  0  0  0  0  0  0  0  0  0  0  0
   21.5540    4.5380   17.8760 F   0  0  0  0  0  0  0  0  0  0  0  0
   21.0780    6.2340   19.4330 C   0  0  0  0  0  0  0  0  0  0  0  0
   21.2300    7.4690   19.9410 N   0  0  0  0  0  0  0  0  0  0  0  0
  8  9  1  0
  9 10  1  0
 10 11  1  0
 10 12  2  0
 12 13  1  0
 13 14  1  0
 13  1  1  0
  1  2  2  0
  2  3  1  0
  3 21  1  0
 21 22  1  0
 22 23  2  0
 22 25  1  0
 25 26  2  0
 26 27  1  0
 27 28  2  0
 28 29  1  0
 28 30  1  0
 30 31  2  0
  3  4  2  0
  4  5  1  0
  5  6  2  0
  6  7  1  0
 13 15  1  0
 15 16  1  0
 16 17  2  0
 16 18  2  0
 16  9  1  0
  6  1  1  0
 31 25  1  0
 11 19  1  0
 11 20  1  0
 21 24  1  0
M  END
> <meeko>
{"is_sidechain": false}

> <source_group>
BACE1-457

> <source_system>
BACE1_verubecestat

> <source_run>
alternate_457_seed4409_ex32

> <source_seed>
4409

> <vina_pose_rank>
16

> <vina_affinity_kcal_mol>
-6.9080000000000004

> <vina_rmsd_to_crystal_angstrom>
6.9260999999999999

> <minimizedAffinity>
-6.71939

> <CNNscore>
0.0578861237

> <CNNaffinity>
4.2649827003

> <CNN_VS>
0.2468833178

> <CNNaffinity_variance>
1.3073220253

$$$$
BACE1_verubecestat__alternate_457_seed4409_ex32__pose17


 31 33  0  0  0  0  0  0  0  0999 V2000
   22.5150    8.2640   17.6230 C   0  0  0  0  0  0  0  0  0  0  0  0
   23.6910    7.7880   17.0470 C   0  0  0  0  0  0  0  0  0  0  0  0
   23.7240    6.6480   16.2750 C   0  0  0  0  0  0  0  0  0  0  0  0
   22.5660    5.9110   16.0610 C   0  0  0  0  0  0  0  0  0  0  0  0
   21.3890    6.3710   16.6230 C   0  0  0  0  0  0  0  0  0  0  0  0
   21.3650    7.5330   17.3680 C   0  0  0  0  0  0  0  0  0  0  0  0
   20.1910    7.9790   17.8840 F   0  0  0  0  0  0  0  0  0  0  0  0
   23.9690   12.0980   15.3130 C   0  0  0  0  0  0  0  0  0  0  0  0
   23.4440   11.3250   16.4560 N   0  0  0  0  0  0  0  0  0  0  0  0
   24.2430   10.9350   17.5540 C   0  0  0  0  0  0  0  0  0  0  0  0
   25.5050   11.4650   17.5380 N   0  0  0  0  0  0  0  0  0  0  0  0
   23.8260   10.1650   18.5110 N   0  0  0  0  0  0  0  0  0  0  0  0
   22.5100    9.5290   18.4690 C   0  0  0  0  0  0  0  0  0  0  0  0
   22.2680    9.1450   19.9310 C   0  0  0  0  0  0  0  0  0  0  0  0
   21.4540   10.5450   18.0960 C   0  0  0  0  0  0  0  0  0  0  0  0
   21.7300   11.1630   16.4550 S   0  0  0  0  0  0  0  0  0  0  0  0
   21.1710   12.5020   16.4170 O   0  0  0  0  0  0  0  0  0  0  0  0
   21.4820   10.1610   15.4650 O   0  0  0  0  0  0  0  0  0  0  0  0
   26.1370   11.2510   18.2620 H   0  0  0  0  0  0  0  0  0  0  0  0
   25.7800   12.0600   16.8040 H   0  0  0  0  0  0  0  0  0  0  0  0
   24.9710    6.2770   15.7570 N   0  0  0  0  0  0  0  0  0  0  0  0
   25.5220    6.6040   14.5310 C   0  0  0  0  0  0  0  0  0  0  0  0
   24.9340    7.1820   13.6270 O   0  0  0  0  0  0  0  0  0  0  0  0
   25.5270    5.7110   16.3410 H   0  0  0  0  0  0  0  0  0  0  0  0
   26.9480    6.2350   14.3580 C   0  0  0  0  0  0  0  0  0  0  0  0
   27.6380    6.6530   13.2340 C   0  0  0  0  0  0  0  0  0  0  0  0
   28.9660    6.2780   13.1230 C   0  0  0  0  0  0  0  0  0  0  0  0
   29.5520    5.5180   14.1170 C   0  0  0  0  0  0  0  0  0  0  0  0
   30.8340    5.1230   14.0490 F   0  0  0  0  0  0  0  0  0  0  0  0
   28.7810    5.1460   15.1950 C   0  0  0  0  0  0  0  0  0  0  0  0
   27.4890    5.4890   15.3270 N   0  0  0  0  0  0  0  0  0  0  0  0
  8  9  1  0
  9 10  1  0
 10 11  1  0
 10 12  2  0
 12 13  1  0
 13 14  1  0
 13  1  1  0
  1  2  2  0
  2  3  1  0
  3 21  1  0
 21 22  1  0
 22 23  2  0
 22 25  1  0
 25 26  2  0
 26 27  1  0
 27 28  2  0
 28 29  1  0
 28 30  1  0
 30 31  2  0
  3  4  2  0
  4  5  1  0
  5  6  2  0
  6  7  1  0
 13 15  1  0
 15 16  1  0
 16 17  2  0
 16 18  2  0
 16  9  1  0
  6  1  1  0
 31 25  1  0
 11 19  1  0
 11 20  1  0
 21 24  1  0
M  END
> <meeko>
{"is_sidechain": false}

> <source_group>
BACE1-457

> <source_system>
BACE1_verubecestat

> <source_run>
alternate_457_seed4409_ex32

> <source_seed>
4409

> <vina_pose_rank>
17

> <vina_affinity_kcal_mol>
-6.9020000000000001

> <vina_rmsd_to_crystal_angstrom>
7.1086

> <minimizedAffinity>
-6.66064

> <CNNscore>
0.1915333569

> <CNNaffinity>
4.8801350594

> <CNN_VS>
0.9347086549

> <CNNaffinity_variance>
0.6983606219

$$$$
BACE1_verubecestat__alternate_457_seed4409_ex32__pose18


 31 33  0  0  0  0  0  0  0  0999 V2000
   22.3760   10.4130   18.0250 C   0  0  0  0  0  0  0  0  0  0  0  0
   22.2690   10.5520   19.4080 C   0  0  0  0  0  0  0  0  0  0  0  0
   22.2640    9.4690   20.2590 C   0  0  0  0  0  0  0  0  0  0  0  0
   22.3460    8.1780   19.7540 C   0  0  0  0  0  0  0  0  0  0  0  0
   22.4560    8.0210   18.3840 C   0  0  0  0  0  0  0  0  0  0  0  0
   22.4920    9.1170   17.5450 C   0  0  0  0  0  0  0  0  0  0  0  0
   22.6300    8.9370   16.2060 F   0  0  0  0  0  0  0  0  0  0  0  0
   25.5990   13.6420   19.1800 C   0  0  0  0  0  0  0  0  0  0  0  0
   24.5140   13.0390   18.3810 N   0  0  0  0  0  0  0  0  0  0  0  0
   23.1690   13.4620   18.4650 C   0  0  0  0  0  0  0  0  0  0  0  0
   22.9850   14.5780   19.2360 N   0  0  0  0  0  0  0  0  0  0  0  0
   22.1880   12.8730   17.8540 N   0  0  0  0  0  0  0  0  0  0  0  0
   22.3810   11.6280   17.1120 C   0  0  0  0  0  0  0  0  0  0  0  0
   21.1470   11.5730   16.2070 C   0  0  0  0  0  0  0  0  0  0  0  0
   23.5880   11.7450   16.2070 C   0  0  0  0  0  0  0  0  0  0  0  0
   25.0690   11.9570   17.1630 S   0  0  0  0  0  0  0  0  0  0  0  0
   26.0000   12.6930   16.3260 O   0  0  0  0  0  0  0  0  0  0  0  0
   25.4040   10.7700   17.8860 O   0  0  0  0  0  0  0  0  0  0  0  0
   22.0810   14.9500   19.3550 H   0  0  0  0  0  0  0  0  0  0  0  0
   23.7560   15.0090   19.6710 H   0  0  0  0  0  0  0  0  0  0  0  0
   22.1490    9.7470   21.6270 N   0  0  0  0  0  0  0  0  0  0  0  0
   23.0360   10.4280   22.4420 C   0  0  0  0  0  0  0  0  0  0  0  0
   24.1550   10.7960   22.1110 O   0  0  0  0  0  0  0  0  0  0  0  0
   21.3310    9.4150   22.0640 H   0  0  0  0  0  0  0  0  0  0  0  0
   22.5330   10.7440   23.8000 C   0  0  0  0  0  0  0  0  0  0  0  0
   22.6650   12.0260   24.3050 C   0  0  0  0  0  0  0  0  0  0  0  0
   22.1800   12.2650   25.5790 C   0  0  0  0  0  0  0  0  0  0  0  0
   21.5880   11.2410   26.2930 C   0  0  0  0  0  0  0  0  0  0  0  0
   21.1110   11.4230   27.5360 F   0  0  0  0  0  0  0  0  0  0  0  0
   21.5080    9.9980   25.7080 C   0  0  0  0  0  0  0  0  0  0  0  0
   21.9750    9.7340   24.4760 N   0  0  0  0  0  0  0  0  0  0  0  0
  8  9  1  0
  9 10  1  0
 10 11  1  0
 10 12  2  0
 12 13  1  0
 13 14  1  0
 13  1  1  0
  1  2  2  0
  2  3  1  0
  3 21  1  0
 21 22  1  0
 22 23  2  0
 22 25  1  0
 25 26  2  0
 26 27  1  0
 27 28  2  0
 28 29  1  0
 28 30  1  0
 30 31  2  0
  3  4  2  0
  4  5  1  0
  5  6  2  0
  6  7  1  0
 13 15  1  0
 15 16  1  0
 16 17  2  0
 16 18  2  0
 16  9  1  0
  6  1  1  0
 31 25  1  0
 11 19  1  0
 11 20  1  0
 21 24  1  0
M  END
> <meeko>
{"is_sidechain": false}

> <source_group>
BACE1-457

> <source_system>
BACE1_verubecestat

> <source_run>
alternate_457_seed4409_ex32

> <source_seed>
4409

> <vina_pose_rank>
18

> <vina_affinity_kcal_mol>
-6.7510000000000003

> <vina_rmsd_to_crystal_angstrom>
6.5487000000000002

> <minimizedAffinity>
-6.61887

> <CNNscore>
0.0864855498

> <CNNaffinity>
4.7907981873

> <CNN_VS>
0.4143348038

> <CNNaffinity_variance>
0.5861145258

$$$$
BACE1_verubecestat__alternate_457_seed4409_ex32__pose19


 31 33  0  0  0  0  0  0  0  0999 V2000
   24.0470   12.5040   21.6400 C   0  0  0  0  0  0  0  0  0  0  0  0
   25.1290   13.1650   22.2190 C   0  0  0  0  0  0  0  0  0  0  0  0
   25.4300   13.0520   23.5570 C   0  0  0  0  0  0  0  0  0  0  0  0
   24.6370   12.2780   24.3940 C   0  0  0  0  0  0  0  0  0  0  0  0
   23.5600   11.6110   23.8360 C   0  0  0  0  0  0  0  0  0  0  0  0
   23.2890   11.7080   22.4850 C   0  0  0  0  0  0  0  0  0  0  0  0
   22.2440   11.0210   21.9570 F   0  0  0  0  0  0  0  0  0  0  0  0
   27.8420   12.1540   18.8780 C   0  0  0  0  0  0  0  0  0  0  0  0
   26.4080   12.3090   19.1940 N   0  0  0  0  0  0  0  0  0  0  0  0
   25.7410   13.5540   19.1600 C   0  0  0  0  0  0  0  0  0  0  0  0
   26.5020   14.5770   18.6620 N   0  0  0  0  0  0  0  0  0  0  0  0
   24.5120   13.7250   19.5390 N   0  0  0  0  0  0  0  0  0  0  0  0
   23.7420   12.6470   20.1570 C   0  0  0  0  0  0  0  0  0  0  0  0
   22.2950   13.1220   19.9930 C   0  0  0  0  0  0  0  0  0  0  0  0
   23.8850   11.3770   19.3480 C   0  0  0  0  0  0  0  0  0  0  0  0
   25.5690   10.8140   19.3570 S   0  0  0  0  0  0  0  0  0  0  0  0
   25.7650   10.0740   18.1230 O   0  0  0  0  0  0  0  0  0  0  0  0
   25.9600   10.3420   20.6480 O   0  0  0  0  0  0  0  0  0  0  0  0
   26.1250   15.4850   18.5990 H   0  0  0  0  0  0  0  0  0  0  0  0
   27.4260   14.4070   18.3670 H   0  0  0  0  0  0  0  0  0  0  0  0
   26.5430   13.7710   24.0130 N   0  0  0  0  0  0  0  0  0  0  0  0
   27.8700   13.3800   24.0240 C   0  0  0  0  0  0  0  0  0  0  0  0
   28.2770   12.2590   23.7450 O   0  0  0  0  0  0  0  0  0  0  0  0
   26.3570   14.6690   24.3710 H   0  0  0  0  0  0  0  0  0  0  0  0
   28.8420   14.4450   24.3730 C   0  0  0  0  0  0  0  0  0  0  0  0
   28.5660   15.3170   25.4120 C   0  0  0  0  0  0  0  0  0  0  0  0
   29.5060   16.2930   25.6930 C   0  0  0  0  0  0  0  0  0  0  0  0
   30.6680   16.3650   24.9490 C   0  0  0  0  0  0  0  0  0  0  0  0
   31.6050   17.3000   25.1790 F   0  0  0  0  0  0  0  0  0  0  0  0
   30.8490   15.4550   23.9310 C   0  0  0  0  0  0  0  0  0  0  0  0
   29.9520   14.5010   23.6310 N   0  0  0  0  0  0  0  0  0  0  0  0
  8  9  1  0
  9 10  1  0
 10 11  1  0
 10 12  2  0
 12 13  1  0
 13 14  1  0
 13  1  1  0
  1  2  2  0
  2  3  1  0
  3 21  1  0
 21 22  1  0
 22 23  2  0
 22 25  1  0
 25 26  2  0
 26 27  1  0
 27 28  2  0
 28 29  1  0
 28 30  1  0
 30 31  2  0
  3  4  2  0
  4  5  1  0
  5  6  2  0
  6  7  1  0
 13 15  1  0
 15 16  1  0
 16 17  2  0
 16 18  2  0
 16  9  1  0
  6  1  1  0
 31 25  1  0
 11 19  1  0
 11 20  1  0
 21 24  1  0
M  END
> <meeko>
{"is_sidechain": false}

> <source_group>
BACE1-457

> <source_system>
BACE1_verubecestat

> <source_run>
alternate_457_seed4409_ex32

> <source_seed>
4409

> <vina_pose_rank>
19

> <vina_affinity_kcal_mol>
-6.7000000000000002

> <vina_rmsd_to_crystal_angstrom>
5.8780999999999999

> <minimizedAffinity>
-6.60426

> <CNNscore>
0.0264164135

> <CNNaffinity>
3.5833885670

> <CNN_VS>
0.0946602747

> <CNNaffinity_variance>
0.9542470574

$$$$
BACE1_verubecestat__alternate_457_seed4409_ex32__pose20


 31 33  0  0  0  0  0  0  0  0999 V2000
   21.6430   11.4700   17.0510 C   0  0  0  0  0  0  0  0  0  0  0  0
   21.6110   10.1190   17.3960 C   0  0  0  0  0  0  0  0  0  0  0  0
   21.3540    9.1300   16.4750 C   0  0  0  0  0  0  0  0  0  0  0  0
   21.0900    9.4540   15.1500 C   0  0  0  0  0  0  0  0  0  0  0  0
   21.1200   10.7890   14.7880 C   0  0  0  0  0  0  0  0  0  0  0  0
   21.4120   11.7690   15.7170 C   0  0  0  0  0  0  0  0  0  0  0  0
   21.4640   13.0690   15.3310 F   0  0  0  0  0  0  0  0  0  0  0  0
   25.6000   10.7250   19.4870 C   0  0  0  0  0  0  0  0  0  0  0  0
   24.3800   11.4480   19.0750 N   0  0  0  0  0  0  0  0  0  0  0  0
   23.1870   11.4380   19.8320 C   0  0  0  0  0  0  0  0  0  0  0  0
   23.3080   10.8280   21.0520 N   0  0  0  0  0  0  0  0  0  0  0  0
   22.0760   11.9760   19.4330 N   0  0  0  0  0  0  0  0  0  0  0  0
   21.9330   12.5400   18.0920 C   0  0  0  0  0  0  0  0  0  0  0  0
   20.7040   13.4430   18.2290 C   0  0  0  0  0  0  0  0  0  0  0  0
   23.1100   13.4370   17.7780 C   0  0  0  0  0  0  0  0  0  0  0  0
   24.6180   12.5010   17.7350 S   0  0  0  0  0  0  0  0  0  0  0  0
   25.6840   13.4190   18.0920 O   0  0  0  0  0  0  0  0  0  0  0  0
   24.6590   11.6200   16.6100 O   0  0  0  0  0  0  0  0  0  0  0  0
   22.5300   10.7720   21.6520 H   0  0  0  0  0  0  0  0  0  0  0  0
   24.1730   10.4470   21.3280 H   0  0  0  0  0  0  0  0  0  0  0  0
   21.3480    7.8130   16.9530 N   0  0  0  0  0  0  0  0  0  0  0  0
   22.4290    6.9790   17.1780 C   0  0  0  0  0  0  0  0  0  0  0  0
   23.5860    7.2250   16.8650 O   0  0  0  0  0  0  0  0  0  0  0  0
   20.4630    7.4330   17.1550 H   0  0  0  0  0  0  0  0  0  0  0  0
   22.1160    5.7150   17.8880 C   0  0  0  0  0  0  0  0  0  0  0  0
   22.1500    5.6720   19.2710 C   0  0  0  0  0  0  0  0  0  0  0  0
   21.8510    4.4660   19.8810 C   0  0  0  0  0  0  0  0  0  0  0  0
   21.5310    3.3660   19.1100 C   0  0  0  0  0  0  0  0  0  0  0  0
   21.2430    2.1730   19.6570 F   0  0  0  0  0  0  0  0  0  0  0  0
   21.5290    3.5060   17.7400 C   0  0  0  0  0  0  0  0  0  0  0  0
   21.8200    4.6610   17.1200 N   0  0  0  0  0  0  0  0  0  0  0  0
  8  9  1  0
  9 10  1  0
 10 11  1  0
 10 12  2  0
 12 13  1  0
 13 14  1  0
 13  1  1  0
  1  2  2  0
  2  3  1  0
  3 21  1  0
 21 22  1  0
 22 23  2  0
 22 25  1  0
 25 26  2  0
 26 27  1  0
 27 28  2  0
 28 29  1  0
 28 30  1  0
 30 31  2  0
  3  4  2  0
  4  5  1  0
  5  6  2  0
  6  7  1  0
 13 15  1  0
 15 16  1  0
 16 17  2  0
 16 18  2  0
 16  9  1  0
  6  1  1  0
 31 25  1  0
 11 19  1  0
 11 20  1  0
 21 24  1  0
M  END
> <meeko>
{"is_sidechain": false}

> <source_group>
BACE1-457

> <source_system>
BACE1_verubecestat

> <source_run>
alternate_457_seed4409_ex32

> <source_seed>
4409

> <vina_pose_rank>
20

> <vina_affinity_kcal_mol>
-6.6950000000000003

> <vina_rmsd_to_crystal_angstrom>
7.1486999999999998

> <minimizedAffinity>
-6.47831

> <CNNscore>
0.1514706761

> <CNNaffinity>
4.9950866699

> <CNN_VS>
0.7566091418

> <CNNaffinity_variance>
0.7505416274

$$$$
