BACE1_verubecestat_401__alternate_401_seed2207_ex32__pose01
     RDKit          3D

 45 47  0  0  0  0  0  0  0  0999 V2000
   16.8970    4.7490   16.0390 C   0  0  0  0  0  0  0  0  0  0  0  0
   16.1850    4.1570   17.1880 N   0  0  0  0  0  0  0  0  0  0  0  0
   14.7800    4.2000   17.3290 C   0  0  0  0  0  0  0  0  0  0  0  0
   14.1280    4.7030   16.2350 N   0  0  0  0  0  0  0  0  0  0  0  0
   14.1470    3.7820   18.3810 N   0  0  0  0  0  0  0  0  0  0  0  0
   14.8570    3.3350   19.5780 C   0  0  2  0  0  0  0  0  0  0  0  0
   13.7950    2.5220   20.3240 C   0  0  0  0  0  0  0  0  0  0  0  0
   15.2870    4.5010   20.4550 C   0  0  0  0  0  0  0  0  0  0  0  0
   16.1840    4.3190   21.5060 C   0  0  0  0  0  0  0  0  0  0  0  0
   16.5890    5.3550   22.3170 C   0  0  0  0  0  0  0  0  0  0  0  0
   17.4960    5.0370   23.3360 N   0  0  0  0  0  0  0  0  0  0  0  0
   18.8600    5.2660   23.3710 C   0  0  0  0  0  0  0  0  0  0  0  0
   19.5290    5.6800   22.4340 O   0  0  0  0  0  0  0  0  0  0  0  0
   19.5120    5.0070   24.6780 C   0  0  0  0  0  0  0  0  0  0  0  0
   19.3550    5.9060   25.7190 C   0  0  0  0  0  0  0  0  0  0  0  0
   19.9860    5.6160   26.9150 C   0  0  0  0  0  0  0  0  0  0  0  0
   20.7360    4.4610   27.0350 C   0  0  0  0  0  0  0  0  0  0  0  0
   21.3750    4.1420   28.1740 F   0  0  0  0  0  0  0  0  0  0  0  0
   20.8380    3.6320   25.9410 C   0  0  0  0  0  0  0  0  0  0  0  0
   20.2410    3.8900   24.7660 N   0  0  0  0  0  0  0  0  0  0  0  0
   16.1230    6.6450   22.0950 C   0  0  0  0  0  0  0  0  0  0  0  0
   15.2300    6.8440   21.0570 C   0  0  0  0  0  0  0  0  0  0  0  0
   14.8080    5.7890   20.2720 C   0  0  0  0  0  0  0  0  0  0  0  0
   13.9080    6.0060   19.2790 F   0  0  0  0  0  0  0  0  0  0  0  0
   15.9640    2.3770   19.1980 C   0  0  0  0  0  0  0  0  0  0  0  0
   17.1870    3.1940   18.2040 S   0  0  0  0  0  0  0  0  0  0  0  0
   17.7910    2.1720   17.3680 O   0  0  0  0  0  0  0  0  0  0  0  0
   17.9280    4.1530   18.9620 O   0  0  0  0  0  0  0  0  0  0  0  0
   17.6948    5.4124   16.4043 H   0  0  0  0  0  0  0  0  0  0  0  0
   17.3377    3.9474   15.4281 H   0  0  0  0  0  0  0  0  0  0  0  0
   16.1892    5.3286   15.4281 H   0  0  0  0  0  0  0  0  0  0  0  0
   13.1460    4.7730   16.2370 H   0  0  0  0  0  0  0  0  0  0  0  0
   14.6400    4.9940   15.4460 H   0  0  0  0  0  0  0  0  0  0  0  0
   13.9419    2.6344   21.4083 H   0  0  0  0  0  0  0  0  0  0  0  0
   12.7942    2.8870   20.0497 H   0  0  0  0  0  0  0  0  0  0  0  0
   13.8861    1.4606   20.0497 H   0  0  0  0  0  0  0  0  0  0  0  0
   16.5827    3.3112   21.6943 H   0  0  0  0  0  0  0  0  0  0  0  0
   17.1130    4.5950   24.1290 H   0  0  0  0  0  0  0  0  0  0  0  0
   18.7507    6.8173   25.5993 H   0  0  0  0  0  0  0  0  0  0  0  0
   19.8913    6.3029   27.7689 H   0  0  0  0  0  0  0  0  0  0  0  0
   21.4372    2.7142   26.0335 H   0  0  0  0  0  0  0  0  0  0  0  0
   16.4542    7.4832   22.7257 H   0  0  0  0  0  0  0  0  0  0  0  0
   14.8509    7.8565   20.8542 H   0  0  0  0  0  0  0  0  0  0  0  0
   16.4395    1.9935   20.1128 H   0  0  0  0  0  0  0  0  0  0  0  0
   15.5314    1.5492   18.6170 H   0  0  0  0  0  0  0  0  0  0  0  0
  1  2  1  0
  2  3  1  0
  3  4  1  0
  3  5  2  0
  5  6  1  0
  6  7  1  1
  6  8  1  0
  8  9  2  0
  9 10  1  0
 10 11  1  0
 11 12  1  0
 12 13  2  0
 12 14  1  0
 14 15  2  0
 15 16  1  0
 16 17  2  0
 17 18  1  0
 17 19  1  0
 19 20  2  0
 10 21  2  0
 21 22  1  0
 22 23  2  0
 23 24  1  0
  6 25  1  0
 25 26  1  0
 26 27  2  0
 26 28  2  0
 26  2  1  0
 23  8  1  0
 20 14  1  0
  1 29  1  0
  1 30  1  0
  1 31  1  0
  4 32  1  0
  4 33  1  0
  7 34  1  0
  7 35  1  0
  7 36  1  0
  9 37  1  0
 11 38  1  0
 15 39  1  0
 16 40  1  0
 19 41  1  0
 21 42  1  0
 22 43  1  0
 25 44  1  0
 25 45  1  0
M  END
>  <meeko>  (1) 
{"is_sidechain": false}

>  <source_group>  (1) 
BACE1-401 observed AD isoform

>  <source_system>  (1) 
BACE1_verubecestat_401

>  <source_run>  (1) 
alternate_401_seed2207_ex32

>  <source_seed>  (1) 
2207

>  <vina_pose_rank>  (1) 
1

>  <vina_affinity_kcal_mol>  (1) 
-9.6050000000000004

>  <vina_rmsd_to_crystal_angstrom>  (1) 
10.9048

$$$$
BACE1_verubecestat_401__alternate_401_seed2207_ex32__pose02
     RDKit          3D

 45 47  0  0  0  0  0  0  0  0999 V2000
   22.7250   11.2840   23.1290 C   0  0  0  0  0  0  0  0  0  0  0  0
   21.9150   11.2610   24.3630 N   0  0  0  0  0  0  0  0  0  0  0  0
   21.6380   10.0760   25.0800 C   0  0  0  0  0  0  0  0  0  0  0  0
   22.3110    8.9770   24.6180 N   0  0  0  0  0  0  0  0  0  0  0  0
   20.8410   10.0210   26.1020 N   0  0  0  0  0  0  0  0  0  0  0  0
   20.0560   11.1790   26.5280 C   0  0  2  0  0  0  0  0  0  0  0  0
   19.6710   10.8230   27.9660 C   0  0  0  0  0  0  0  0  0  0  0  0
   18.7870   11.3420   25.7050 C   0  0  0  0  0  0  0  0  0  0  0  0
   18.4830   10.4600   24.6690 C   0  0  0  0  0  0  0  0  0  0  0  0
   17.3430   10.5850   23.9070 C   0  0  0  0  0  0  0  0  0  0  0  0
   17.1550    9.6310   22.8990 N   0  0  0  0  0  0  0  0  0  0  0  0
   16.4030    8.4710   22.9460 C   0  0  0  0  0  0  0  0  0  0  0  0
   15.8690    8.0180   23.9500 O   0  0  0  0  0  0  0  0  0  0  0  0
   16.2280    7.7760   21.6470 C   0  0  0  0  0  0  0  0  0  0  0  0
   14.9680    7.3680   21.2450 C   0  0  0  0  0  0  0  0  0  0  0  0
   14.8640    6.7230   20.0260 C   0  0  0  0  0  0  0  0  0  0  0  0
   15.9940    6.5110   19.2600 C   0  0  0  0  0  0  0  0  0  0  0  0
   15.9430    5.8810   18.0740 F   0  0  0  0  0  0  0  0  0  0  0  0
   17.2050    6.9480   19.7480 C   0  0  0  0  0  0  0  0  0  0  0  0
   17.3380    7.5730   20.9300 N   0  0  0  0  0  0  0  0  0  0  0  0
   16.4320   11.6000   24.1660 C   0  0  0  0  0  0  0  0  0  0  0  0
   16.7190   12.4870   25.1890 C   0  0  0  0  0  0  0  0  0  0  0  0
   17.8820   12.3690   25.9240 C   0  0  0  0  0  0  0  0  0  0  0  0
   18.1550   13.2690   26.9030 F   0  0  0  0  0  0  0  0  0  0  0  0
   20.9370   12.4060   26.5960 C   0  0  0  0  0  0  0  0  0  0  0  0
   21.5560   12.8250   24.9850 S   0  0  0  0  0  0  0  0  0  0  0  0
   22.8210   13.5070   25.1920 O   0  0  0  0  0  0  0  0  0  0  0  0
   20.5150   13.3030   24.1290 O   0  0  0  0  0  0  0  0  0  0  0  0
   23.7927   11.3143   23.3918 H   0  0  0  0  0  0  0  0  0  0  0  0
   22.5184   10.3796   22.5379 H   0  0  0  0  0  0  0  0  0  0  0  0
   22.4674   12.1752   22.5379 H   0  0  0  0  0  0  0  0  0  0  0  0
   22.1830    8.1030   25.0540 H   0  0  0  0  0  0  0  0  0  0  0  0
   22.9220    9.0600   23.8500 H   0  0  0  0  0  0  0  0  0  0  0  0
   20.2941   11.3992   28.6658 H   0  0  0  0  0  0  0  0  0  0  0  0
   18.6113   11.0664   28.1328 H   0  0  0  0  0  0  0  0  0  0  0  0
   19.8308    9.7475   28.1328 H   0  0  0  0  0  0  0  0  0  0  0  0
   19.1782    9.6354   24.4528 H   0  0  0  0  0  0  0  0  0  0  0  0
   17.6170    9.8090   22.0480 H   0  0  0  0  0  0  0  0  0  0  0  0
   14.0824    7.5499   21.8716 H   0  0  0  0  0  0  0  0  0  0  0  0
   13.8828    6.3792   19.6668 H   0  0  0  0  0  0  0  0  0  0  0  0
   18.1066    6.7774   19.1413 H   0  0  0  0  0  0  0  0  0  0  0  0
   15.5090   11.6965   23.5754 H   0  0  0  0  0  0  0  0  0  0  0  0
   16.0111   13.2968   25.4196 H   0  0  0  0  0  0  0  0  0  0  0  0
   20.3508   13.2501   26.9883 H   0  0  0  0  0  0  0  0  0  0  0  0
   21.7894   12.1929   27.2578 H   0  0  0  0  0  0  0  0  0  0  0  0
  1  2  1  0
  2  3  1  0
  3  4  1  0
  3  5  2  0
  5  6  1  0
  6  7  1  1
  6  8  1  0
  8  9  2  0
  9 10  1  0
 10 11  1  0
 11 12  1  0
 12 13  2  0
 12 14  1  0
 14 15  2  0
 15 16  1  0
 16 17  2  0
 17 18  1  0
 17 19  1  0
 19 20  2  0
 10 21  2  0
 21 22  1  0
 22 23  2  0
 23 24  1  0
  6 25  1  0
 25 26  1  0
 26 27  2  0
 26 28  2  0
 26  2  1  0
 23  8  1  0
 20 14  1  0
  1 29  1  0
  1 30  1  0
  1 31  1  0
  4 32  1  0
  4 33  1  0
  7 34  1  0
  7 35  1  0
  7 36  1  0
  9 37  1  0
 11 38  1  0
 15 39  1  0
 16 40  1  0
 19 41  1  0
 21 42  1  0
 22 43  1  0
 25 44  1  0
 25 45  1  0
M  END
>  <meeko>  (2) 
{"is_sidechain": false}

>  <source_group>  (2) 
BACE1-401 observed AD isoform

>  <source_system>  (2) 
BACE1_verubecestat_401

>  <source_run>  (2) 
alternate_401_seed2207_ex32

>  <source_seed>  (2) 
2207

>  <vina_pose_rank>  (2) 
2

>  <vina_affinity_kcal_mol>  (2) 
-9.3689999999999998

>  <vina_rmsd_to_crystal_angstrom>  (2) 
9.4846000000000004

$$$$
BACE1_verubecestat_401__alternate_401_seed2207_ex32__pose03
     RDKit          3D

 45 47  0  0  0  0  0  0  0  0999 V2000
   28.3900   13.5240   21.8290 C   0  0  0  0  0  0  0  0  0  0  0  0
   27.2630   13.2840   20.9060 N   0  0  0  0  0  0  0  0  0  0  0  0
   26.2560   14.2420   20.6550 C   0  0  0  0  0  0  0  0  0  0  0  0
   26.4980   15.4640   21.2230 N   0  0  0  0  0  0  0  0  0  0  0  0
   25.2030   14.0100   19.9330 N   0  0  0  0  0  0  0  0  0  0  0  0
   24.9080   12.6770   19.4120 C   0  0  2  0  0  0  0  0  0  0  0  0
   23.9100   12.9620   18.2860 C   0  0  0  0  0  0  0  0  0  0  0  0
   24.2360   11.7930   20.4510 C   0  0  0  0  0  0  0  0  0  0  0  0
   24.0470   12.2360   21.7590 C   0  0  0  0  0  0  0  0  0  0  0  0
   23.4450   11.4570   22.7210 C   0  0  0  0  0  0  0  0  0  0  0  0
   23.3150   12.0230   23.9960 N   0  0  0  0  0  0  0  0  0  0  0  0
   22.3610   12.9200   24.4420 C   0  0  0  0  0  0  0  0  0  0  0  0
   21.5300   13.4740   23.7340 O   0  0  0  0  0  0  0  0  0  0  0  0
   22.3610   13.1700   25.9040 C   0  0  0  0  0  0  0  0  0  0  0  0
   21.3260   12.6910   26.6870 C   0  0  0  0  0  0  0  0  0  0  0  0
   21.3760   12.9560   28.0450 C   0  0  0  0  0  0  0  0  0  0  0  0
   22.4360   13.6710   28.5670 C   0  0  0  0  0  0  0  0  0  0  0  0
   22.5230   13.9600   29.8770 F   0  0  0  0  0  0  0  0  0  0  0  0
   23.4160   14.1110   27.7060 C   0  0  0  0  0  0  0  0  0  0  0  0
   23.3910   13.8750   26.3840 N   0  0  0  0  0  0  0  0  0  0  0  0
   22.9780   10.1870   22.4060 C   0  0  0  0  0  0  0  0  0  0  0  0
   23.1590    9.7300   21.1130 C   0  0  0  0  0  0  0  0  0  0  0  0
   23.7940   10.5100   20.1670 C   0  0  0  0  0  0  0  0  0  0  0  0
   23.9860   10.0260   18.9130 F   0  0  0  0  0  0  0  0  0  0  0  0
   26.1430   12.0850   18.7690 C   0  0  0  0  0  0  0  0  0  0  0  0
   27.4230   11.8440   19.9760 S   0  0  0  0  0  0  0  0  0  0  0  0
   28.6850   11.9300   19.2630 O   0  0  0  0  0  0  0  0  0  0  0  0
   27.0890   10.8030   20.8970 O   0  0  0  0  0  0  0  0  0  0  0  0
   28.0357   13.4486   22.8677 H   0  0  0  0  0  0  0  0  0  0  0  0
   29.1740   12.7727   21.6535 H   0  0  0  0  0  0  0  0  0  0  0  0
   28.7999   14.5296   21.6535 H   0  0  0  0  0  0  0  0  0  0  0  0
   25.8530   16.1980   21.1040 H   0  0  0  0  0  0  0  0  0  0  0  0
   27.3170   15.6090   21.7500 H   0  0  0  0  0  0  0  0  0  0  0  0
   22.9378   13.2396   18.7193 H   0  0  0  0  0  0  0  0  0  0  0  0
   24.2843   13.7892   17.6649 H   0  0  0  0  0  0  0  0  0  0  0  0
   23.7910   12.0619   17.6649 H   0  0  0  0  0  0  0  0  0  0  0  0
   24.3913   13.2444   22.0323 H   0  0  0  0  0  0  0  0  0  0  0  0
   23.9880   11.7460   24.6590 H   0  0  0  0  0  0  0  0  0  0  0  0
   20.4944   12.1209   26.2471 H   0  0  0  0  0  0  0  0  0  0  0  0
   20.5734   12.5979   28.7065 H   0  0  0  0  0  0  0  0  0  0  0  0
   24.2594   14.6829   28.1203 H   0  0  0  0  0  0  0  0  0  0  0  0
   22.4791    9.5634   23.1624 H   0  0  0  0  0  0  0  0  0  0  0  0
   22.7919    8.7312   20.8345 H   0  0  0  0  0  0  0  0  0  0  0  0
   25.8857   11.1158   18.3168 H   0  0  0  0  0  0  0  0  0  0  0  0
   26.5089   12.7797   17.9986 H   0  0  0  0  0  0  0  0  0  0  0  0
  1  2  1  0
  2  3  1  0
  3  4  1  0
  3  5  2  0
  5  6  1  0
  6  7  1  6
  6  8  1  0
  8  9  2  0
  9 10  1  0
 10 11  1  0
 11 12  1  0
 12 13  2  0
 12 14  1  0
 14 15  2  0
 15 16  1  0
 16 17  2  0
 17 18  1  0
 17 19  1  0
 19 20  2  0
 10 21  2  0
 21 22  1  0
 22 23  2  0
 23 24  1  0
  6 25  1  0
 25 26  1  0
 26 27  2  0
 26 28  2  0
 26  2  1  0
 23  8  1  0
 20 14  1  0
  1 29  1  0
  1 30  1  0
  1 31  1  0
  4 32  1  0
  4 33  1  0
  7 34  1  0
  7 35  1  0
  7 36  1  0
  9 37  1  0
 11 38  1  0
 15 39  1  0
 16 40  1  0
 19 41  1  0
 21 42  1  0
 22 43  1  0
 25 44  1  0
 25 45  1  0
M  END
>  <meeko>  (3) 
{"is_sidechain": false}

>  <source_group>  (3) 
BACE1-401 observed AD isoform

>  <source_system>  (3) 
BACE1_verubecestat_401

>  <source_run>  (3) 
alternate_401_seed2207_ex32

>  <source_seed>  (3) 
2207

>  <vina_pose_rank>  (3) 
3

>  <vina_affinity_kcal_mol>  (3) 
-9.0060000000000002

>  <vina_rmsd_to_crystal_angstrom>  (3) 
7.1563999999999997

$$$$
BACE1_verubecestat_401__alternate_401_seed2207_ex32__pose04
     RDKit          3D

 45 47  0  0  0  0  0  0  0  0999 V2000
   20.3050   12.4820   30.4870 C   0  0  0  0  0  0  0  0  0  0  0  0
   19.5210   12.5930   29.2420 N   0  0  0  0  0  0  0  0  0  0  0  0
   18.3470   11.8460   29.0010 C   0  0  0  0  0  0  0  0  0  0  0  0
   17.9160   11.1250   30.0830 N   0  0  0  0  0  0  0  0  0  0  0  0
   17.7070   11.8500   27.8730 N   0  0  0  0  0  0  0  0  0  0  0  0
   18.2260   12.5470   26.6980 C   0  0  2  0  0  0  0  0  0  0  0  0
   16.9880   12.6900   25.8080 C   0  0  0  0  0  0  0  0  0  0  0  0
   19.2690   11.7220   25.9600 C   0  0  0  0  0  0  0  0  0  0  0  0
   19.4590   10.3720   26.2530 C   0  0  0  0  0  0  0  0  0  0  0  0
   20.3960    9.6020   25.6030 C   0  0  0  0  0  0  0  0  0  0  0  0
   20.4840    8.2590   25.9910 N   0  0  0  0  0  0  0  0  0  0  0  0
   19.7100    7.1930   25.5690 C   0  0  0  0  0  0  0  0  0  0  0  0
   18.7140    7.2820   24.8630 O   0  0  0  0  0  0  0  0  0  0  0  0
   20.1840    5.8560   26.0020 C   0  0  0  0  0  0  0  0  0  0  0  0
   20.6530    4.9520   25.0640 C   0  0  0  0  0  0  0  0  0  0  0  0
   21.0800    3.7190   25.5240 C   0  0  0  0  0  0  0  0  0  0  0  0
   21.0310    3.4330   26.8740 C   0  0  0  0  0  0  0  0  0  0  0  0
   21.4270    2.2460   27.3650 F   0  0  0  0  0  0  0  0  0  0  0  0
   20.5430    4.3950   27.7290 C   0  0  0  0  0  0  0  0  0  0  0  0
   20.1150    5.5980   27.3120 N   0  0  0  0  0  0  0  0  0  0  0  0
   21.1840   10.1520   24.5990 C   0  0  0  0  0  0  0  0  0  0  0  0
   21.0120   11.4910   24.2970 C   0  0  0  0  0  0  0  0  0  0  0  0
   20.0890   12.2590   24.9790 C   0  0  0  0  0  0  0  0  0  0  0  0
   19.9600   13.5780   24.6840 F   0  0  0  0  0  0  0  0  0  0  0  0
   18.6650   13.9450   27.0750 C   0  0  0  0  0  0  0  0  0  0  0  0
   20.0170   13.8900   28.2230 S   0  0  0  0  0  0  0  0  0  0  0  0
   19.9420   15.1070   29.0100 O   0  0  0  0  0  0  0  0  0  0  0  0
   21.2120   13.4030   27.6080 O   0  0  0  0  0  0  0  0  0  0  0  0
   19.6334   12.5771   31.3530 H   0  0  0  0  0  0  0  0  0  0  0  0
   20.8072   11.5038   30.5181 H   0  0  0  0  0  0  0  0  0  0  0  0
   21.0590   13.2824   30.5181 H   0  0  0  0  0  0  0  0  0  0  0  0
   17.1050   10.5720   30.0140 H   0  0  0  0  0  0  0  0  0  0  0  0
   18.4180   11.1600   30.9300 H   0  0  0  0  0  0  0  0  0  0  0  0
   16.0928   12.7934   26.4389 H   0  0  0  0  0  0  0  0  0  0  0  0
   17.0940   13.5819   25.1729 H   0  0  0  0  0  0  0  0  0  0  0  0
   16.8879   11.7974   25.1729 H   0  0  0  0  0  0  0  0  0  0  0  0
   18.8375    9.9059   27.0317 H   0  0  0  0  0  0  0  0  0  0  0  0
   21.1860    8.0470   26.6480 H   0  0  0  0  0  0  0  0  0  0  0  0
   20.6849    5.2045   23.9938 H   0  0  0  0  0  0  0  0  0  0  0  0
   21.4580    2.9675   24.8152 H   0  0  0  0  0  0  0  0  0  0  0  0
   20.5016    4.1679   28.8045 H   0  0  0  0  0  0  0  0  0  0  0  0
   21.9228    9.5405   24.0603 H   0  0  0  0  0  0  0  0  0  0  0  0
   21.6188   11.9502   23.5027 H   0  0  0  0  0  0  0  0  0  0  0  0
   18.9829   14.4805   26.1682 H   0  0  0  0  0  0  0  0  0  0  0  0
   17.8196   14.4653   27.5490 H   0  0  0  0  0  0  0  0  0  0  0  0
  1  2  1  0
  2  3  1  0
  3  4  1  0
  3  5  2  0
  5  6  1  0
  6  7  1  6
  6  8  1  0
  8  9  2  0
  9 10  1  0
 10 11  1  0
 11 12  1  0
 12 13  2  0
 12 14  1  0
 14 15  2  0
 15 16  1  0
 16 17  2  0
 17 18  1  0
 17 19  1  0
 19 20  2  0
 10 21  2  0
 21 22  1  0
 22 23  2  0
 23 24  1  0
  6 25  1  0
 25 26  1  0
 26 27  2  0
 26 28  2  0
 26  2  1  0
 23  8  1  0
 20 14  1  0
  1 29  1  0
  1 30  1  0
  1 31  1  0
  4 32  1  0
  4 33  1  0
  7 34  1  0
  7 35  1  0
  7 36  1  0
  9 37  1  0
 11 38  1  0
 15 39  1  0
 16 40  1  0
 19 41  1  0
 21 42  1  0
 22 43  1  0
 25 44  1  0
 25 45  1  0
M  END
>  <meeko>  (4) 
{"is_sidechain": false}

>  <source_group>  (4) 
BACE1-401 observed AD isoform

>  <source_system>  (4) 
BACE1_verubecestat_401

>  <source_run>  (4) 
alternate_401_seed2207_ex32

>  <source_seed>  (4) 
2207

>  <vina_pose_rank>  (4) 
4

>  <vina_affinity_kcal_mol>  (4) 
-8.6839999999999993

>  <vina_rmsd_to_crystal_angstrom>  (4) 
8.3492999999999995

$$$$
BACE1_verubecestat_401__alternate_401_seed2207_ex32__pose05
     RDKit          3D

 45 47  0  0  0  0  0  0  0  0999 V2000
   19.2780    5.4240   26.6530 C   0  0  0  0  0  0  0  0  0  0  0  0
   19.7080    5.9570   25.3450 N   0  0  0  0  0  0  0  0  0  0  0  0
   20.3160    7.2230   25.1910 C   0  0  0  0  0  0  0  0  0  0  0  0
   20.6090    7.8460   26.3740 N   0  0  0  0  0  0  0  0  0  0  0  0
   20.6010    7.7510   24.0410 N   0  0  0  0  0  0  0  0  0  0  0  0
   20.1980    7.1210   22.7850 C   0  0  2  0  0  0  0  0  0  0  0  0
   21.1160    7.7880   21.7570 C   0  0  0  0  0  0  0  0  0  0  0  0
   18.7530    7.4300   22.4280 C   0  0  0  0  0  0  0  0  0  0  0  0
   18.0630    6.6650   21.4890 C   0  0  0  0  0  0  0  0  0  0  0  0
   16.7560    6.9240   21.1450 C   0  0  0  0  0  0  0  0  0  0  0  0
   16.1790    6.0770   20.1890 N   0  0  0  0  0  0  0  0  0  0  0  0
   14.8600    5.6720   20.0880 C   0  0  0  0  0  0  0  0  0  0  0  0
   13.9890    5.8960   20.9190 O   0  0  0  0  0  0  0  0  0  0  0  0
   14.5150    4.9430   18.8440 C   0  0  0  0  0  0  0  0  0  0  0  0
   13.8540    5.5990   17.8200 C   0  0  0  0  0  0  0  0  0  0  0  0
   13.5550    4.8690   16.6820 C   0  0  0  0  0  0  0  0  0  0  0  0
   13.9200    3.5390   16.6020 C   0  0  0  0  0  0  0  0  0  0  0  0
   13.6430    2.7890   15.5220 F   0  0  0  0  0  0  0  0  0  0  0  0
   14.5690    2.9740   17.6750 C   0  0  0  0  0  0  0  0  0  0  0  0
   14.8680    3.6540   18.7950 N   0  0  0  0  0  0  0  0  0  0  0  0
   16.0620    7.9640   21.7510 C   0  0  0  0  0  0  0  0  0  0  0  0
   16.7320    8.7370   22.6830 C   0  0  0  0  0  0  0  0  0  0  0  0
   18.0530    8.4850   22.9950 C   0  0  0  0  0  0  0  0  0  0  0  0
   18.6970    9.2760   23.8910 F   0  0  0  0  0  0  0  0  0  0  0  0
   20.5520    5.6500   22.8050 C   0  0  0  0  0  0  0  0  0  0  0  0
   19.6380    4.8030   24.0690 S   0  0  0  0  0  0  0  0  0  0  0  0
   20.4460    3.6660   24.4730 O   0  0  0  0  0  0  0  0  0  0  0  0
   18.2460    4.7270   23.7530 O   0  0  0  0  0  0  0  0  0  0  0  0
   19.7481    6.0067   27.4589 H   0  0  0  0  0  0  0  0  0  0  0  0
   18.1837    5.4980   26.7373 H   0  0  0  0  0  0  0  0  0  0  0  0
   19.5818    4.3701   26.7373 H   0  0  0  0  0  0  0  0  0  0  0  0
   21.0340    8.7340   26.3710 H   0  0  0  0  0  0  0  0  0  0  0  0
   20.3940    7.4070   27.2290 H   0  0  0  0  0  0  0  0  0  0  0  0
   21.8991    8.3570   22.2794 H   0  0  0  0  0  0  0  0  0  0  0  0
   21.5821    7.0165   21.1265 H   0  0  0  0  0  0  0  0  0  0  0  0
   20.5262    8.4697   21.1265 H   0  0  0  0  0  0  0  0  0  0  0  0
   18.5819    5.8241   21.0056 H   0  0  0  0  0  0  0  0  0  0  0  0
   16.7900    5.7260   19.5020 H   0  0  0  0  0  0  0  0  0  0  0  0
   13.5768    6.6599   17.9069 H   0  0  0  0  0  0  0  0  0  0  0  0
   13.0279    5.3472   15.8433 H   0  0  0  0  0  0  0  0  0  0  0  0
   14.8573    1.9142   17.6135 H   0  0  0  0  0  0  0  0  0  0  0  0
   15.0110    8.1669   21.4974 H   0  0  0  0  0  0  0  0  0  0  0  0
   16.2048    9.5635   23.1820 H   0  0  0  0  0  0  0  0  0  0  0  0
   20.3116    5.2072   21.8272 H   0  0  0  0  0  0  0  0  0  0  0  0
   21.6267    5.5473   23.0161 H   0  0  0  0  0  0  0  0  0  0  0  0
  1  2  1  0
  2  3  1  0
  3  4  1  0
  3  5  2  0
  5  6  1  0
  6  7  1  6
  6  8  1  0
  8  9  2  0
  9 10  1  0
 10 11  1  0
 11 12  1  0
 12 13  2  0
 12 14  1  0
 14 15  2  0
 15 16  1  0
 16 17  2  0
 17 18  1  0
 17 19  1  0
 19 20  2  0
 10 21  2  0
 21 22  1  0
 22 23  2  0
 23 24  1  0
  6 25  1  0
 25 26  1  0
 26 27  2  0
 26 28  2  0
 26  2  1  0
 23  8  1  0
 20 14  1  0
  1 29  1  0
  1 30  1  0
  1 31  1  0
  4 32  1  0
  4 33  1  0
  7 34  1  0
  7 35  1  0
  7 36  1  0
  9 37  1  0
 11 38  1  0
 15 39  1  0
 16 40  1  0
 19 41  1  0
 21 42  1  0
 22 43  1  0
 25 44  1  0
 25 45  1  0
M  END
>  <meeko>  (5) 
{"is_sidechain": false}

>  <source_group>  (5) 
BACE1-401 observed AD isoform

>  <source_system>  (5) 
BACE1_verubecestat_401

>  <source_run>  (5) 
alternate_401_seed2207_ex32

>  <source_seed>  (5) 
2207

>  <vina_pose_rank>  (5) 
5

>  <vina_affinity_kcal_mol>  (5) 
-8.6839999999999993

>  <vina_rmsd_to_crystal_angstrom>  (5) 
11.1829

$$$$
BACE1_verubecestat_401__alternate_401_seed2207_ex32__pose06
     RDKit          3D

 45 47  0  0  0  0  0  0  0  0999 V2000
   19.3380    4.8240   24.1160 C   0  0  0  0  0  0  0  0  0  0  0  0
   18.6150    5.2620   22.9050 N   0  0  0  0  0  0  0  0  0  0  0  0
   19.2530    5.8900   21.8130 C   0  0  0  0  0  0  0  0  0  0  0  0
   20.6180    5.9190   21.9080 N   0  0  0  0  0  0  0  0  0  0  0  0
   18.6200    6.3780   20.7910 N   0  0  0  0  0  0  0  0  0  0  0  0
   17.1590    6.4260   20.7430 C   0  0  2  0  0  0  0  0  0  0  0  0
   16.8710    6.6080   19.2510 C   0  0  0  0  0  0  0  0  0  0  0  0
   16.6030    7.6220   21.5000 C   0  0  0  0  0  0  0  0  0  0  0  0
   17.4460    8.5000   22.1800 C   0  0  0  0  0  0  0  0  0  0  0  0
   16.9700    9.5880   22.8750 C   0  0  0  0  0  0  0  0  0  0  0  0
   17.9240   10.3920   23.5120 N   0  0  0  0  0  0  0  0  0  0  0  0
   17.8120   11.0630   24.7170 C   0  0  0  0  0  0  0  0  0  0  0  0
   16.7850   11.1650   25.3740 O   0  0  0  0  0  0  0  0  0  0  0  0
   19.0700   11.6600   25.2280 C   0  0  0  0  0  0  0  0  0  0  0  0
   19.7770   12.5580   24.4470 C   0  0  0  0  0  0  0  0  0  0  0  0
   20.9440   13.0820   24.9730 C   0  0  0  0  0  0  0  0  0  0  0  0
   21.3600   12.7050   26.2350 C   0  0  0  0  0  0  0  0  0  0  0  0
   22.4920   13.1800   26.7830 F   0  0  0  0  0  0  0  0  0  0  0  0
   20.5930   11.8010   26.9330 C   0  0  0  0  0  0  0  0  0  0  0  0
   19.4580   11.2710   26.4470 N   0  0  0  0  0  0  0  0  0  0  0  0
   15.6080    9.8640   22.9030 C   0  0  0  0  0  0  0  0  0  0  0  0
   14.7560    9.0010   22.2370 C   0  0  0  0  0  0  0  0  0  0  0  0
   15.2450    7.8950   21.5710 C   0  0  0  0  0  0  0  0  0  0  0  0
   14.3850    7.0480   20.9500 F   0  0  0  0  0  0  0  0  0  0  0  0
   16.5820    5.0870   21.1470 C   0  0  0  0  0  0  0  0  0  0  0  0
   16.9850    4.7140   22.8350 S   0  0  0  0  0  0  0  0  0  0  0  0
   17.0120    3.2660   22.9430 O   0  0  0  0  0  0  0  0  0  0  0  0
   16.2950    5.5750   23.7440 O   0  0  0  0  0  0  0  0  0  0  0  0
   18.7902    5.1559   25.0103 H   0  0  0  0  0  0  0  0  0  0  0  0
   19.4158    3.7268   24.1199 H   0  0  0  0  0  0  0  0  0  0  0  0
   20.3465    5.2631   24.1199 H   0  0  0  0  0  0  0  0  0  0  0  0
   21.1530    6.3370   21.1950 H   0  0  0  0  0  0  0  0  0  0  0  0
   21.0660    5.5230   22.6910 H   0  0  0  0  0  0  0  0  0  0  0  0
   15.9473    7.1917   19.1244 H   0  0  0  0  0  0  0  0  0  0  0  0
   17.7092    7.1408   18.7781 H   0  0  0  0  0  0  0  0  0  0  0  0
   16.7496    5.6223   18.7781 H   0  0  0  0  0  0  0  0  0  0  0  0
   18.5304    8.3164   22.1602 H   0  0  0  0  0  0  0  0  0  0  0  0
   18.7830   10.4920   23.0420 H   0  0  0  0  0  0  0  0  0  0  0  0
   19.4239   12.8442   23.4453 H   0  0  0  0  0  0  0  0  0  0  0  0
   21.5397   13.7977   24.3874 H   0  0  0  0  0  0  0  0  0  0  0  0
   20.9248   11.4976   27.9369 H   0  0  0  0  0  0  0  0  0  0  0  0
   15.2191   10.7425   23.4388 H   0  0  0  0  0  0  0  0  0  0  0  0
   13.6739    9.1989   22.2382 H   0  0  0  0  0  0  0  0  0  0  0  0
   15.4881    5.1165   21.0349 H   0  0  0  0  0  0  0  0  0  0  0  0
   17.0109    4.3074   20.5003 H   0  0  0  0  0  0  0  0  0  0  0  0
  1  2  1  0
  2  3  1  0
  3  4  1  0
  3  5  2  0
  5  6  1  0
  6  7  1  6
  6  8  1  0
  8  9  2  0
  9 10  1  0
 10 11  1  0
 11 12  1  0
 12 13  2  0
 12 14  1  0
 14 15  2  0
 15 16  1  0
 16 17  2  0
 17 18  1  0
 17 19  1  0
 19 20  2  0
 10 21  2  0
 21 22  1  0
 22 23  2  0
 23 24  1  0
  6 25  1  0
 25 26  1  0
 26 27  2  0
 26 28  2  0
 26  2  1  0
 23  8  1  0
 20 14  1  0
  1 29  1  0
  1 30  1  0
  1 31  1  0
  4 32  1  0
  4 33  1  0
  7 34  1  0
  7 35  1  0
  7 36  1  0
  9 37  1  0
 11 38  1  0
 15 39  1  0
 16 40  1  0
 19 41  1  0
 21 42  1  0
 22 43  1  0
 25 44  1  0
 25 45  1  0
M  END
>  <meeko>  (6) 
{"is_sidechain": false}

>  <source_group>  (6) 
BACE1-401 observed AD isoform

>  <source_system>  (6) 
BACE1_verubecestat_401

>  <source_run>  (6) 
alternate_401_seed2207_ex32

>  <source_seed>  (6) 
2207

>  <vina_pose_rank>  (6) 
6

>  <vina_affinity_kcal_mol>  (6) 
-8.6760000000000002

>  <vina_rmsd_to_crystal_angstrom>  (6) 
8.8912999999999993

$$$$
BACE1_verubecestat_401__alternate_401_seed2207_ex32__pose07
     RDKit          3D

 45 47  0  0  0  0  0  0  0  0999 V2000
   27.2710   13.9170   23.1100 C   0  0  0  0  0  0  0  0  0  0  0  0
   26.4040   13.5940   21.9600 N   0  0  0  0  0  0  0  0  0  0  0  0
   25.1490   14.2060   21.7450 C   0  0  0  0  0  0  0  0  0  0  0  0
   24.8770   15.2330   22.6100 N   0  0  0  0  0  0  0  0  0  0  0  0
   24.3270   13.8580   20.8040 N   0  0  0  0  0  0  0  0  0  0  0  0
   24.5850   12.7010   19.9490 C   0  0  2  0  0  0  0  0  0  0  0  0
   23.6680   12.9500   18.7480 C   0  0  0  0  0  0  0  0  0  0  0  0
   24.1780   11.3960   20.6150 C   0  0  0  0  0  0  0  0  0  0  0  0
   23.4410   11.3920   21.7980 C   0  0  0  0  0  0  0  0  0  0  0  0
   23.0600   10.2270   22.4250 C   0  0  0  0  0  0  0  0  0  0  0  0
   22.3200   10.3620   23.6070 N   0  0  0  0  0  0  0  0  0  0  0  0
   22.5930   11.1620   24.7020 C   0  0  0  0  0  0  0  0  0  0  0  0
   23.6230   11.8010   24.8680 O   0  0  0  0  0  0  0  0  0  0  0  0
   21.5080   11.2470   25.7100 C   0  0  0  0  0  0  0  0  0  0  0  0
   20.1920   11.0530   25.3270 C   0  0  0  0  0  0  0  0  0  0  0  0
   19.2210   11.1450   26.3080 C   0  0  0  0  0  0  0  0  0  0  0  0
   19.5840   11.4190   27.6120 C   0  0  0  0  0  0  0  0  0  0  0  0
   18.6750   11.5280   28.5960 F   0  0  0  0  0  0  0  0  0  0  0  0
   20.9190   11.6020   27.8940 C   0  0  0  0  0  0  0  0  0  0  0  0
   21.8830   11.5240   26.9630 N   0  0  0  0  0  0  0  0  0  0  0  0
   23.3870    8.9930   21.8750 C   0  0  0  0  0  0  0  0  0  0  0  0
   24.1210    8.9780   20.7020 C   0  0  0  0  0  0  0  0  0  0  0  0
   24.5230   10.1550   20.1020 C   0  0  0  0  0  0  0  0  0  0  0  0
   25.2680   10.1130   18.9680 F   0  0  0  0  0  0  0  0  0  0  0  0
   26.0080   12.7410   19.4360 C   0  0  0  0  0  0  0  0  0  0  0  0
   27.1620   12.5990   20.7770 S   0  0  0  0  0  0  0  0  0  0  0  0
   28.3730   13.2810   20.3550 O   0  0  0  0  0  0  0  0  0  0  0  0
   27.1360   11.2940   21.3590 O   0  0  0  0  0  0  0  0  0  0  0  0
   26.7292   13.7151   24.0458 H   0  0  0  0  0  0  0  0  0  0  0  0
   28.1785   13.2967   23.0706 H   0  0  0  0  0  0  0  0  0  0  0  0
   27.5514   14.9799   23.0706 H   0  0  0  0  0  0  0  0  0  0  0  0
   24.0260   15.7230   22.5400 H   0  0  0  0  0  0  0  0  0  0  0  0
   25.5330   15.4820   23.3010 H   0  0  0  0  0  0  0  0  0  0  0  0
   22.6635   13.2227   19.1039 H   0  0  0  0  0  0  0  0  0  0  0  0
   24.0763   13.7698   18.1387 H   0  0  0  0  0  0  0  0  0  0  0  0
   23.6055   12.0363   18.1387 H   0  0  0  0  0  0  0  0  0  0  0  0
   23.1534   12.3542   22.2468 H   0  0  0  0  0  0  0  0  0  0  0  0
   21.5010    9.8190   23.6650 H   0  0  0  0  0  0  0  0  0  0  0  0
   19.9282   10.8339   24.2818 H   0  0  0  0  0  0  0  0  0  0  0  0
   18.1616   11.0002   26.0499 H   0  0  0  0  0  0  0  0  0  0  0  0
   21.2097   11.8227   28.9317 H   0  0  0  0  0  0  0  0  0  0  0  0
   23.0717    8.0563   22.3578 H   0  0  0  0  0  0  0  0  0  0  0  0
   24.3879    8.0154   20.2413 H   0  0  0  0  0  0  0  0  0  0  0  0
   26.1632   11.9067   18.7361 H   0  0  0  0  0  0  0  0  0  0  0  0
   26.1737   13.7019   18.9268 H   0  0  0  0  0  0  0  0  0  0  0  0
  1  2  1  0
  2  3  1  0
  3  4  1  0
  3  5  2  0
  5  6  1  0
  6  7  1  6
  6  8  1  0
  8  9  2  0
  9 10  1  0
 10 11  1  0
 11 12  1  0
 12 13  2  0
 12 14  1  0
 14 15  2  0
 15 16  1  0
 16 17  2  0
 17 18  1  0
 17 19  1  0
 19 20  2  0
 10 21  2  0
 21 22  1  0
 22 23  2  0
 23 24  1  0
  6 25  1  0
 25 26  1  0
 26 27  2  0
 26 28  2  0
 26  2  1  0
 23  8  1  0
 20 14  1  0
  1 29  1  0
  1 30  1  0
  1 31  1  0
  4 32  1  0
  4 33  1  0
  7 34  1  0
  7 35  1  0
  7 36  1  0
  9 37  1  0
 11 38  1  0
 15 39  1  0
 16 40  1  0
 19 41  1  0
 21 42  1  0
 22 43  1  0
 25 44  1  0
 25 45  1  0
M  END
>  <meeko>  (7) 
{"is_sidechain": false}

>  <source_group>  (7) 
BACE1-401 observed AD isoform

>  <source_system>  (7) 
BACE1_verubecestat_401

>  <source_run>  (7) 
alternate_401_seed2207_ex32

>  <source_seed>  (7) 
2207

>  <vina_pose_rank>  (7) 
7

>  <vina_affinity_kcal_mol>  (7) 
-8.4390000000000001

>  <vina_rmsd_to_crystal_angstrom>  (7) 
7.1702000000000004

$$$$
BACE1_verubecestat_401__alternate_401_seed2207_ex32__pose08
     RDKit          3D

 45 47  0  0  0  0  0  0  0  0999 V2000
   25.5980   13.8830   23.7030 C   0  0  0  0  0  0  0  0  0  0  0  0
   25.3170   13.6370   22.2740 N   0  0  0  0  0  0  0  0  0  0  0  0
   24.0170   13.6950   21.7240 C   0  0  0  0  0  0  0  0  0  0  0  0
   23.0640   14.1470   22.5970 N   0  0  0  0  0  0  0  0  0  0  0  0
   23.7380   13.3760   20.4980 N   0  0  0  0  0  0  0  0  0  0  0  0
   24.7450   12.8050   19.6040 C   0  0  2  0  0  0  0  0  0  0  0  0
   24.1420   13.0360   18.2160 C   0  0  0  0  0  0  0  0  0  0  0  0
   24.9170   11.3090   19.8210 C   0  0  0  0  0  0  0  0  0  0  0  0
   24.1200   10.6170   20.7310 C   0  0  0  0  0  0  0  0  0  0  0  0
   24.2560    9.2650   20.9500 C   0  0  0  0  0  0  0  0  0  0  0  0
   23.3900    8.6900   21.8890 N   0  0  0  0  0  0  0  0  0  0  0  0
   22.6210    9.3270   22.8480 C   0  0  0  0  0  0  0  0  0  0  0  0
   22.6760   10.5200   23.1160 O   0  0  0  0  0  0  0  0  0  0  0  0
   21.6460    8.4610   23.5540 C   0  0  0  0  0  0  0  0  0  0  0  0
   21.1550    7.3250   22.9340 C   0  0  0  0  0  0  0  0  0  0  0  0
   20.2460    6.5550   23.6380 C   0  0  0  0  0  0  0  0  0  0  0  0
   19.8650    6.9320   24.9110 C   0  0  0  0  0  0  0  0  0  0  0  0
   18.9790    6.2220   25.6290 F   0  0  0  0  0  0  0  0  0  0  0  0
   20.4040    8.0830   25.4410 C   0  0  0  0  0  0  0  0  0  0  0  0
   21.2840    8.8530   24.7800 N   0  0  0  0  0  0  0  0  0  0  0  0
   25.1970    8.5290   20.2400 C   0  0  0  0  0  0  0  0  0  0  0  0
   25.9990    9.2000   19.3350 C   0  0  0  0  0  0  0  0  0  0  0  0
   25.8730   10.5630   19.1490 C   0  0  0  0  0  0  0  0  0  0  0  0
   26.6930   11.2030   18.2760 F   0  0  0  0  0  0  0  0  0  0  0  0
   26.0200   13.6140   19.6740 C   0  0  0  0  0  0  0  0  0  0  0  0
   26.7310   13.5250   21.2980 S   0  0  0  0  0  0  0  0  0  0  0  0
   27.4830   14.7530   21.4890 O   0  0  0  0  0  0  0  0  0  0  0  0
   27.2400   12.2200   21.5810 O   0  0  0  0  0  0  0  0  0  0  0  0
   24.9128   13.2831   24.3200 H   0  0  0  0  0  0  0  0  0  0  0  0
   26.6368   13.5988   23.9266 H   0  0  0  0  0  0  0  0  0  0  0  0
   25.4536   14.9503   23.9266 H   0  0  0  0  0  0  0  0  0  0  0  0
   22.1270   14.2230   22.3050 H   0  0  0  0  0  0  0  0  0  0  0  0
   23.3160   14.3970   23.5150 H   0  0  0  0  0  0  0  0  0  0  0  0
   23.1195   13.4277   18.3210 H   0  0  0  0  0  0  0  0  0  0  0  0
   24.7579   13.7618   17.6648 H   0  0  0  0  0  0  0  0  0  0  0  0
   24.1153   12.0844   17.6648 H   0  0  0  0  0  0  0  0  0  0  0  0
   23.3548   11.1712   21.2944 H   0  0  0  0  0  0  0  0  0  0  0  0
   23.3200    7.7090   21.8640 H   0  0  0  0  0  0  0  0  0  0  0  0
   21.4754    7.0448   21.9197 H   0  0  0  0  0  0  0  0  0  0  0  0
   19.8276    5.6443   23.1846 H   0  0  0  0  0  0  0  0  0  0  0  0
   20.0995    8.3862   26.4536 H   0  0  0  0  0  0  0  0  0  0  0  0
   25.3008    7.4447   20.3933 H   0  0  0  0  0  0  0  0  0  0  0  0
   26.7478    8.6405   18.7551 H   0  0  0  0  0  0  0  0  0  0  0  0
   26.7397   13.2178   18.9425 H   0  0  0  0  0  0  0  0  0  0  0  0
   25.7852   14.6646   19.4478 H   0  0  0  0  0  0  0  0  0  0  0  0
  1  2  1  0
  2  3  1  0
  3  4  1  0
  3  5  2  0
  5  6  1  0
  6  7  1  6
  6  8  1  0
  8  9  2  0
  9 10  1  0
 10 11  1  0
 11 12  1  0
 12 13  2  0
 12 14  1  0
 14 15  2  0
 15 16  1  0
 16 17  2  0
 17 18  1  0
 17 19  1  0
 19 20  2  0
 10 21  2  0
 21 22  1  0
 22 23  2  0
 23 24  1  0
  6 25  1  0
 25 26  1  0
 26 27  2  0
 26 28  2  0
 26  2  1  0
 23  8  1  0
 20 14  1  0
  1 29  1  0
  1 30  1  0
  1 31  1  0
  4 32  1  0
  4 33  1  0
  7 34  1  0
  7 35  1  0
  7 36  1  0
  9 37  1  0
 11 38  1  0
 15 39  1  0
 16 40  1  0
 19 41  1  0
 21 42  1  0
 22 43  1  0
 25 44  1  0
 25 45  1  0
M  END
>  <meeko>  (8) 
{"is_sidechain": false}

>  <source_group>  (8) 
BACE1-401 observed AD isoform

>  <source_system>  (8) 
BACE1_verubecestat_401

>  <source_run>  (8) 
alternate_401_seed2207_ex32

>  <source_seed>  (8) 
2207

>  <vina_pose_rank>  (8) 
8

>  <vina_affinity_kcal_mol>  (8) 
-8.3010000000000002

>  <vina_rmsd_to_crystal_angstrom>  (8) 
6.5471000000000004

$$$$
BACE1_verubecestat_401__alternate_401_seed2207_ex32__pose09
     RDKit          3D

 45 47  0  0  0  0  0  0  0  0999 V2000
   16.4330    3.9880   19.7800 C   0  0  0  0  0  0  0  0  0  0  0  0
   16.5290    5.3320   20.3830 N   0  0  0  0  0  0  0  0  0  0  0  0
   17.3120    6.3700   19.8300 C   0  0  0  0  0  0  0  0  0  0  0  0
   17.8500    6.0690   18.6070 N   0  0  0  0  0  0  0  0  0  0  0  0
   17.4940    7.5200   20.4020 N   0  0  0  0  0  0  0  0  0  0  0  0
   16.9940    7.7960   21.7480 C   0  0  2  0  0  0  0  0  0  0  0  0
   17.0040    9.3260   21.8100 C   0  0  0  0  0  0  0  0  0  0  0  0
   17.9220    7.2540   22.8240 C   0  0  0  0  0  0  0  0  0  0  0  0
   19.0710    6.5390   22.4900 C   0  0  0  0  0  0  0  0  0  0  0  0
   19.9270    6.0350   23.4430 C   0  0  0  0  0  0  0  0  0  0  0  0
   21.0470    5.3370   22.9740 N   0  0  0  0  0  0  0  0  0  0  0  0
   22.2840    5.8420   22.6160 C   0  0  0  0  0  0  0  0  0  0  0  0
   22.5610    7.0320   22.5300 O   0  0  0  0  0  0  0  0  0  0  0  0
   23.3330    4.8260   22.3590 C   0  0  0  0  0  0  0  0  0  0  0  0
   23.3170    3.6270   23.0500 C   0  0  0  0  0  0  0  0  0  0  0  0
   24.3210    2.7160   22.7720 C   0  0  0  0  0  0  0  0  0  0  0  0
   25.2870    3.0210   21.8330 C   0  0  0  0  0  0  0  0  0  0  0  0
   26.2860    2.1720   21.5370 F   0  0  0  0  0  0  0  0  0  0  0  0
   25.2220    4.2430   21.2020 C   0  0  0  0  0  0  0  0  0  0  0  0
   24.2640    5.1490   21.4550 N   0  0  0  0  0  0  0  0  0  0  0  0
   19.6800    6.2470   24.7930 C   0  0  0  0  0  0  0  0  0  0  0  0
   18.5420    6.9520   25.1430 C   0  0  0  0  0  0  0  0  0  0  0  0
   17.6750    7.4240   24.1780 C   0  0  0  0  0  0  0  0  0  0  0  0
   16.5500    8.0880   24.5480 F   0  0  0  0  0  0  0  0  0  0  0  0
   15.5510    7.3570   21.8660 C   0  0  0  0  0  0  0  0  0  0  0  0
   15.4120    5.5990   21.6650 S   0  0  0  0  0  0  0  0  0  0  0  0
   14.0830    5.3460   21.1380 O   0  0  0  0  0  0  0  0  0  0  0  0
   15.9850    4.8950   22.7700 O   0  0  0  0  0  0  0  0  0  0  0  0
   16.3790    3.2316   20.5768 H   0  0  0  0  0  0  0  0  0  0  0  0
   15.5284    3.9294   19.1569 H   0  0  0  0  0  0  0  0  0  0  0  0
   17.3201    3.8015   19.1569 H   0  0  0  0  0  0  0  0  0  0  0  0
   18.4120    6.7290   18.1410 H   0  0  0  0  0  0  0  0  0  0  0  0
   17.6760    5.1920   18.1950 H   0  0  0  0  0  0  0  0  0  0  0  0
   17.0061    9.6504   22.8611 H   0  0  0  0  0  0  0  0  0  0  0  0
   17.9047    9.7075   21.3067 H   0  0  0  0  0  0  0  0  0  0  0  0
   16.1084    9.7192   21.3067 H   0  0  0  0  0  0  0  0  0  0  0  0
   19.3018    6.3716   21.4276 H   0  0  0  0  0  0  0  0  0  0  0  0
   20.9400    4.3610   22.8880 H   0  0  0  0  0  0  0  0  0  0  0  0
   22.5357    3.4064   23.7922 H   0  0  0  0  0  0  0  0  0  0  0  0
   24.3497    1.7504   23.2981 H   0  0  0  0  0  0  0  0  0  0  0  0
   25.9914    4.4886   20.4552 H   0  0  0  0  0  0  0  0  0  0  0  0
   20.3687    5.8657   25.5614 H   0  0  0  0  0  0  0  0  0  0  0  0
   18.3251    7.1390   26.2051 H   0  0  0  0  0  0  0  0  0  0  0  0
   15.1678    7.6385   22.8579 H   0  0  0  0  0  0  0  0  0  0  0  0
   14.9653    7.8507   21.0766 H   0  0  0  0  0  0  0  0  0  0  0  0
  1  2  1  0
  2  3  1  0
  3  4  1  0
  3  5  2  0
  5  6  1  0
  6  7  1  1
  6  8  1  0
  8  9  2  0
  9 10  1  0
 10 11  1  0
 11 12  1  0
 12 13  2  0
 12 14  1  0
 14 15  2  0
 15 16  1  0
 16 17  2  0
 17 18  1  0
 17 19  1  0
 19 20  2  0
 10 21  2  0
 21 22  1  0
 22 23  2  0
 23 24  1  0
  6 25  1  0
 25 26  1  0
 26 27  2  0
 26 28  2  0
 26  2  1  0
 23  8  1  0
 20 14  1  0
  1 29  1  0
  1 30  1  0
  1 31  1  0
  4 32  1  0
  4 33  1  0
  7 34  1  0
  7 35  1  0
  7 36  1  0
  9 37  1  0
 11 38  1  0
 15 39  1  0
 16 40  1  0
 19 41  1  0
 21 42  1  0
 22 43  1  0
 25 44  1  0
 25 45  1  0
M  END
>  <meeko>  (9) 
{"is_sidechain": false}

>  <source_group>  (9) 
BACE1-401 observed AD isoform

>  <source_system>  (9) 
BACE1_verubecestat_401

>  <source_run>  (9) 
alternate_401_seed2207_ex32

>  <source_seed>  (9) 
2207

>  <vina_pose_rank>  (9) 
9

>  <vina_affinity_kcal_mol>  (9) 
-8.2490000000000006

>  <vina_rmsd_to_crystal_angstrom>  (9) 
8.0168999999999997

$$$$
BACE1_verubecestat_401__alternate_401_seed2207_ex32__pose10
     RDKit          3D

 45 47  0  0  0  0  0  0  0  0999 V2000
   26.5030   13.2380   23.8240 C   0  0  0  0  0  0  0  0  0  0  0  0
   26.4890   13.4770   22.3680 N   0  0  0  0  0  0  0  0  0  0  0  0
   25.6360   14.4180   21.7500 C   0  0  0  0  0  0  0  0  0  0  0  0
   24.9340   15.1950   22.6320 N   0  0  0  0  0  0  0  0  0  0  0  0
   25.5330   14.5640   20.4650 N   0  0  0  0  0  0  0  0  0  0  0  0
   26.2150   13.6670   19.5330 C   0  0  2  0  0  0  0  0  0  0  0  0
   26.2110   14.4640   18.2250 C   0  0  0  0  0  0  0  0  0  0  0  0
   25.4450   12.3720   19.3210 C   0  0  0  0  0  0  0  0  0  0  0  0
   26.1010   11.1940   18.9680 C   0  0  0  0  0  0  0  0  0  0  0  0
   25.4300   10.0090   18.7670 C   0  0  0  0  0  0  0  0  0  0  0  0
   26.2090    8.8980   18.4190 N   0  0  0  0  0  0  0  0  0  0  0  0
   26.5540    7.8130   19.2050 C   0  0  0  0  0  0  0  0  0  0  0  0
   26.3310    7.7130   20.4040 O   0  0  0  0  0  0  0  0  0  0  0  0
   27.2130    6.6950   18.4860 C   0  0  0  0  0  0  0  0  0  0  0  0
   26.6840    6.2340   17.2930 C   0  0  0  0  0  0  0  0  0  0  0  0
   27.3380    5.1880   16.6660 C   0  0  0  0  0  0  0  0  0  0  0  0
   28.4750    4.6470   17.2350 C   0  0  0  0  0  0  0  0  0  0  0  0
   29.1370    3.6240   16.6680 F   0  0  0  0  0  0  0  0  0  0  0  0
   28.9200    5.1700   18.4280 C   0  0  0  0  0  0  0  0  0  0  0  0
   28.3040    6.1810   19.0620 N   0  0  0  0  0  0  0  0  0  0  0  0
   24.0530    9.9440   18.9350 C   0  0  0  0  0  0  0  0  0  0  0  0
   23.3840   11.1050   19.2820 C   0  0  0  0  0  0  0  0  0  0  0  0
   24.0670   12.2940   19.4490 C   0  0  0  0  0  0  0  0  0  0  0  0
   23.3840   13.4250   19.7600 F   0  0  0  0  0  0  0  0  0  0  0  0
   27.6600   13.4930   19.9420 C   0  0  0  0  0  0  0  0  0  0  0  0
   27.7730   12.6980   21.5250 S   0  0  0  0  0  0  0  0  0  0  0  0
   29.0160   13.1460   22.1260 O   0  0  0  0  0  0  0  0  0  0  0  0
   27.3590   11.3310   21.4590 O   0  0  0  0  0  0  0  0  0  0  0  0
   26.4466   14.2002   24.3541 H   0  0  0  0  0  0  0  0  0  0  0  0
   25.6398   12.6153   24.1017 H   0  0  0  0  0  0  0  0  0  0  0  0
   27.4330   12.7203   24.1017 H   0  0  0  0  0  0  0  0  0  0  0  0
   24.3130   15.8810   22.2970 H   0  0  0  0  0  0  0  0  0  0  0  0
   25.0510   15.0680   23.6010 H   0  0  0  0  0  0  0  0  0  0  0  0
   26.2056   15.5404   18.4515 H   0  0  0  0  0  0  0  0  0  0  0  0
   27.1104   14.2165   17.6421 H   0  0  0  0  0  0  0  0  0  0  0  0
   25.3141   14.2075   17.6421 H   0  0  0  0  0  0  0  0  0  0  0  0
   27.1940   11.2119   18.8456 H   0  0  0  0  0  0  0  0  0  0  0  0
   26.5540    8.8880   17.4970 H   0  0  0  0  0  0  0  0  0  0  0  0
   25.7778    6.6822   16.8595 H   0  0  0  0  0  0  0  0  0  0  0  0
   26.9534    4.7879   15.7163 H   0  0  0  0  0  0  0  0  0  0  0  0
   29.8236    4.7391   18.8840 H   0  0  0  0  0  0  0  0  0  0  0  0
   23.5098    8.9976   18.7964 H   0  0  0  0  0  0  0  0  0  0  0  0
   22.2938   11.0805   19.4267 H   0  0  0  0  0  0  0  0  0  0  0  0
   28.1761   12.8769   19.1909 H   0  0  0  0  0  0  0  0  0  0  0  0
   28.1300   14.4852   20.0103 H   0  0  0  0  0  0  0  0  0  0  0  0
  1  2  1  0
  2  3  1  0
  3  4  1  0
  3  5  2  0
  5  6  1  0
  6  7  1  6
  6  8  1  0
  8  9  2  0
  9 10  1  0
 10 11  1  0
 11 12  1  0
 12 13  2  0
 12 14  1  0
 14 15  2  0
 15 16  1  0
 16 17  2  0
 17 18  1  0
 17 19  1  0
 19 20  2  0
 10 21  2  0
 21 22  1  0
 22 23  2  0
 23 24  1  0
  6 25  1  0
 25 26  1  0
 26 27  2  0
 26 28  2  0
 26  2  1  0
 23  8  1  0
 20 14  1  0
  1 29  1  0
  1 30  1  0
  1 31  1  0
  4 32  1  0
  4 33  1  0
  7 34  1  0
  7 35  1  0
  7 36  1  0
  9 37  1  0
 11 38  1  0
 15 39  1  0
 16 40  1  0
 19 41  1  0
 21 42  1  0
 22 43  1  0
 25 44  1  0
 25 45  1  0
M  END
>  <meeko>  (10) 
{"is_sidechain": false}

>  <source_group>  (10) 
BACE1-401 observed AD isoform

>  <source_system>  (10) 
BACE1_verubecestat_401

>  <source_run>  (10) 
alternate_401_seed2207_ex32

>  <source_seed>  (10) 
2207

>  <vina_pose_rank>  (10) 
10

>  <vina_affinity_kcal_mol>  (10) 
-8.2289999999999992

>  <vina_rmsd_to_crystal_angstrom>  (10) 
5.6158999999999999

$$$$
BACE1_verubecestat_401__alternate_401_seed2207_ex32__pose11
     RDKit          3D

 45 47  0  0  0  0  0  0  0  0999 V2000
   22.7720    4.9800   24.8140 C   0  0  0  0  0  0  0  0  0  0  0  0
   21.6390    5.5150   24.0330 N   0  0  0  0  0  0  0  0  0  0  0  0
   21.7920    6.1000   22.7560 C   0  0  0  0  0  0  0  0  0  0  0  0
   23.0560    5.9900   22.2420 N   0  0  0  0  0  0  0  0  0  0  0  0
   20.8270    6.6710   22.1040 N   0  0  0  0  0  0  0  0  0  0  0  0
   19.5070    6.8670   22.7010 C   0  0  2  0  0  0  0  0  0  0  0  0
   18.6120    7.1090   21.4820 C   0  0  0  0  0  0  0  0  0  0  0  0
   19.4610    8.0950   23.5960 C   0  0  0  0  0  0  0  0  0  0  0  0
   20.5460    8.9660   23.6790 C   0  0  0  0  0  0  0  0  0  0  0  0
   20.5330   10.0840   24.4820 C   0  0  0  0  0  0  0  0  0  0  0  0
   21.6880   10.8770   24.4720 N   0  0  0  0  0  0  0  0  0  0  0  0
   21.7820   12.2520   24.3430 C   0  0  0  0  0  0  0  0  0  0  0  0
   20.8490   13.0000   24.0820 O   0  0  0  0  0  0  0  0  0  0  0  0
   23.1310   12.8190   24.5820 C   0  0  0  0  0  0  0  0  0  0  0  0
   24.1140   12.6940   23.6160 C   0  0  0  0  0  0  0  0  0  0  0  0
   25.3550   13.2410   23.8920 C   0  0  0  0  0  0  0  0  0  0  0  0
   25.5710   13.8840   25.0960 C   0  0  0  0  0  0  0  0  0  0  0  0
   26.7610   14.4220   25.4120 F   0  0  0  0  0  0  0  0  0  0  0  0
   24.5320   13.9520   25.9960 C   0  0  0  0  0  0  0  0  0  0  0  0
   23.3190   13.4270   25.7580 N   0  0  0  0  0  0  0  0  0  0  0  0
   19.4080   10.3970   25.2340 C   0  0  0  0  0  0  0  0  0  0  0  0
   18.3230    9.5410   25.1670 C   0  0  0  0  0  0  0  0  0  0  0  0
   18.3620    8.4060   24.3810 C   0  0  0  0  0  0  0  0  0  0  0  0
   17.2940    7.5670   24.3560 F   0  0  0  0  0  0  0  0  0  0  0  0
   19.0350    5.5840   23.3480 C   0  0  0  0  0  0  0  0  0  0  0  0
   20.0970    5.1350   24.6970 S   0  0  0  0  0  0  0  0  0  0  0  0
   20.0250    3.6900   24.8180 O   0  0  0  0  0  0  0  0  0  0  0  0
   19.9660    6.0400   25.7960 O   0  0  0  0  0  0  0  0  0  0  0  0
   22.5573    5.0814   25.8881 H   0  0  0  0  0  0  0  0  0  0  0  0
   22.9179    3.9179   24.5679 H   0  0  0  0  0  0  0  0  0  0  0  0
   23.6849    5.5422   24.5679 H   0  0  0  0  0  0  0  0  0  0  0  0
   23.2620    6.3680   21.3570 H   0  0  0  0  0  0  0  0  0  0  0  0
   23.7600    5.5340   22.7590 H   0  0  0  0  0  0  0  0  0  0  0  0
   17.6009    7.3824   21.8180 H   0  0  0  0  0  0  0  0  0  0  0  0
   19.0306    7.9262   20.8762 H   0  0  0  0  0  0  0  0  0  0  0  0
   18.5617    6.1922   20.8762 H   0  0  0  0  0  0  0  0  0  0  0  0
   21.4446    8.7524   23.0816 H   0  0  0  0  0  0  0  0  0  0  0  0
   22.5410   10.3960   24.5690 H   0  0  0  0  0  0  0  0  0  0  0  0
   23.9164   12.1791   22.6643 H   0  0  0  0  0  0  0  0  0  0  0  0
   26.1676   13.1641   23.1546 H   0  0  0  0  0  0  0  0  0  0  0  0
   24.7033   14.4607   26.9562 H   0  0  0  0  0  0  0  0  0  0  0  0
   19.3804   11.2984   25.8639 H   0  0  0  0  0  0  0  0  0  0  0  0
   17.4167    9.7676   25.7478 H   0  0  0  0  0  0  0  0  0  0  0  0
   18.0115    5.7251   23.7256 H   0  0  0  0  0  0  0  0  0  0  0  0
   19.0571    4.7802   22.5974 H   0  0  0  0  0  0  0  0  0  0  0  0
  1  2  1  0
  2  3  1  0
  3  4  1  0
  3  5  2  0
  5  6  1  0
  6  7  1  6
  6  8  1  0
  8  9  2  0
  9 10  1  0
 10 11  1  0
 11 12  1  0
 12 13  2  0
 12 14  1  0
 14 15  2  0
 15 16  1  0
 16 17  2  0
 17 18  1  0
 17 19  1  0
 19 20  2  0
 10 21  2  0
 21 22  1  0
 22 23  2  0
 23 24  1  0
  6 25  1  0
 25 26  1  0
 26 27  2  0
 26 28  2  0
 26  2  1  0
 23  8  1  0
 20 14  1  0
  1 29  1  0
  1 30  1  0
  1 31  1  0
  4 32  1  0
  4 33  1  0
  7 34  1  0
  7 35  1  0
  7 36  1  0
  9 37  1  0
 11 38  1  0
 15 39  1  0
 16 40  1  0
 19 41  1  0
 21 42  1  0
 22 43  1  0
 25 44  1  0
 25 45  1  0
M  END
>  <meeko>  (11) 
{"is_sidechain": false}

>  <source_group>  (11) 
BACE1-401 observed AD isoform

>  <source_system>  (11) 
BACE1_verubecestat_401

>  <source_run>  (11) 
alternate_401_seed2207_ex32

>  <source_seed>  (11) 
2207

>  <vina_pose_rank>  (11) 
11

>  <vina_affinity_kcal_mol>  (11) 
-8.1969999999999992

>  <vina_rmsd_to_crystal_angstrom>  (11) 
6.6658999999999997

$$$$
BACE1_verubecestat_401__alternate_401_seed2207_ex32__pose12
     RDKit          3D

 45 47  0  0  0  0  0  0  0  0999 V2000
   29.4310   13.0590   20.7140 C   0  0  0  0  0  0  0  0  0  0  0  0
   27.9640   12.9180   20.6220 N   0  0  0  0  0  0  0  0  0  0  0  0
   27.1540   12.5630   21.7240 C   0  0  0  0  0  0  0  0  0  0  0  0
   27.8280   12.5120   22.9150 N   0  0  0  0  0  0  0  0  0  0  0  0
   25.8810   12.3290   21.6380 N   0  0  0  0  0  0  0  0  0  0  0  0
   25.1920   12.2930   20.3490 C   0  0  2  0  0  0  0  0  0  0  0  0
   23.7220   12.4670   20.7410 C   0  0  0  0  0  0  0  0  0  0  0  0
   25.3590   10.9530   19.6500 C   0  0  0  0  0  0  0  0  0  0  0  0
   26.0140    9.8920   20.2730 C   0  0  0  0  0  0  0  0  0  0  0  0
   26.1820    8.6700   19.6630 C   0  0  0  0  0  0  0  0  0  0  0  0
   26.8560    7.6880   20.4010 N   0  0  0  0  0  0  0  0  0  0  0  0
   26.3320    6.5600   21.0060 C   0  0  0  0  0  0  0  0  0  0  0  0
   25.1390    6.3020   21.1030 O   0  0  0  0  0  0  0  0  0  0  0  0
   27.3330    5.6010   21.5340 C   0  0  0  0  0  0  0  0  0  0  0  0
   28.6840    5.8610   21.3840 C   0  0  0  0  0  0  0  0  0  0  0  0
   29.5740    4.9310   21.8940 C   0  0  0  0  0  0  0  0  0  0  0  0
   29.0990    3.7980   22.5250 C   0  0  0  0  0  0  0  0  0  0  0  0
   29.9250    2.8640   23.0270 F   0  0  0  0  0  0  0  0  0  0  0  0
   27.7370    3.6250   22.6200 C   0  0  0  0  0  0  0  0  0  0  0  0
   26.8490    4.5060   22.1300 N   0  0  0  0  0  0  0  0  0  0  0  0
   25.6740    8.4430   18.3900 C   0  0  0  0  0  0  0  0  0  0  0  0
   25.0240    9.4860   17.7550 C   0  0  0  0  0  0  0  0  0  0  0  0
   24.8910   10.7170   18.3660 C   0  0  0  0  0  0  0  0  0  0  0  0
   24.2740   11.7330   17.7090 F   0  0  0  0  0  0  0  0  0  0  0  0
   25.5760   13.5000   19.5210 C   0  0  0  0  0  0  0  0  0  0  0  0
   27.3070   13.4660   19.1290 S   0  0  0  0  0  0  0  0  0  0  0  0
   27.7190   14.8480   18.9590 O   0  0  0  0  0  0  0  0  0  0  0  0
   27.6190   12.4160   18.2110 O   0  0  0  0  0  0  0  0  0  0  0  0
   29.7310   13.0878   21.7719 H   0  0  0  0  0  0  0  0  0  0  0  0
   29.9134   12.2031   20.2193 H   0  0  0  0  0  0  0  0  0  0  0  0
   29.7415   13.9911   20.2193 H   0  0  0  0  0  0  0  0  0  0  0  0
   27.3490   12.2740   23.7410 H   0  0  0  0  0  0  0  0  0  0  0  0
   28.7910   12.7140   22.9450 H   0  0  0  0  0  0  0  0  0  0  0  0
   23.6337   12.4775   21.8374 H   0  0  0  0  0  0  0  0  0  0  0  0
   23.3438   13.4162   20.3336 H   0  0  0  0  0  0  0  0  0  0  0  0
   23.1326   11.6323   20.3336 H   0  0  0  0  0  0  0  0  0  0  0  0
   26.4108   10.0367   21.2887 H   0  0  0  0  0  0  0  0  0  0  0  0
   27.8270    7.8170   20.5000 H   0  0  0  0  0  0  0  0  0  0  0  0
   29.0374    6.7720   20.8788 H   0  0  0  0  0  0  0  0  0  0  0  0
   30.6575    5.0943   21.7968 H   0  0  0  0  0  0  0  0  0  0  0  0
   27.3574    2.7223   23.1210 H   0  0  0  0  0  0  0  0  0  0  0  0
   25.7853    7.4636   17.9018 H   0  0  0  0  0  0  0  0  0  0  0  0
   24.6071    9.3324   16.7487 H   0  0  0  0  0  0  0  0  0  0  0  0
   24.9941   13.4976   18.5875 H   0  0  0  0  0  0  0  0  0  0  0  0
   25.3623   14.4098   20.1012 H   0  0  0  0  0  0  0  0  0  0  0  0
  1  2  1  0
  2  3  1  0
  3  4  1  0
  3  5  2  0
  5  6  1  0
  6  7  1  1
  6  8  1  0
  8  9  2  0
  9 10  1  0
 10 11  1  0
 11 12  1  0
 12 13  2  0
 12 14  1  0
 14 15  2  0
 15 16  1  0
 16 17  2  0
 17 18  1  0
 17 19  1  0
 19 20  2  0
 10 21  2  0
 21 22  1  0
 22 23  2  0
 23 24  1  0
  6 25  1  0
 25 26  1  0
 26 27  2  0
 26 28  2  0
 26  2  1  0
 23  8  1  0
 20 14  1  0
  1 29  1  0
  1 30  1  0
  1 31  1  0
  4 32  1  0
  4 33  1  0
  7 34  1  0
  7 35  1  0
  7 36  1  0
  9 37  1  0
 11 38  1  0
 15 39  1  0
 16 40  1  0
 19 41  1  0
 21 42  1  0
 22 43  1  0
 25 44  1  0
 25 45  1  0
M  END
>  <meeko>  (12) 
{"is_sidechain": false}

>  <source_group>  (12) 
BACE1-401 observed AD isoform

>  <source_system>  (12) 
BACE1_verubecestat_401

>  <source_run>  (12) 
alternate_401_seed2207_ex32

>  <source_seed>  (12) 
2207

>  <vina_pose_rank>  (12) 
12

>  <vina_affinity_kcal_mol>  (12) 
-8.1929999999999996

>  <vina_rmsd_to_crystal_angstrom>  (12) 
5.2237

$$$$
BACE1_verubecestat_401__alternate_401_seed2207_ex32__pose13
     RDKit          3D

 45 47  0  0  0  0  0  0  0  0999 V2000
   28.6210   10.4650   22.3140 C   0  0  0  0  0  0  0  0  0  0  0  0
   28.1280   11.7240   21.7210 N   0  0  0  0  0  0  0  0  0  0  0  0
   27.4880   12.7320   22.4770 C   0  0  0  0  0  0  0  0  0  0  0  0
   27.5030   12.5070   23.8270 N   0  0  0  0  0  0  0  0  0  0  0  0
   26.9530   13.7930   21.9570 N   0  0  0  0  0  0  0  0  0  0  0  0
   26.8600   13.9760   20.5090 C   0  0  2  0  0  0  0  0  0  0  0  0
   26.6270   15.4820   20.3680 C   0  0  0  0  0  0  0  0  0  0  0  0
   25.6700   13.2370   19.9160 C   0  0  0  0  0  0  0  0  0  0  0  0
   24.9080   12.3620   20.6880 C   0  0  0  0  0  0  0  0  0  0  0  0
   23.8270   11.6790   20.1770 C   0  0  0  0  0  0  0  0  0  0  0  0
   23.1450   10.8320   21.0610 N   0  0  0  0  0  0  0  0  0  0  0  0
   23.4920    9.5550   21.4630 C   0  0  0  0  0  0  0  0  0  0  0  0
   24.4110    8.8950   20.9980 O   0  0  0  0  0  0  0  0  0  0  0  0
   22.6780    8.9980   22.5710 C   0  0  0  0  0  0  0  0  0  0  0  0
   22.2330    9.8270   23.5860 C   0  0  0  0  0  0  0  0  0  0  0  0
   21.4800    9.2530   24.5960 C   0  0  0  0  0  0  0  0  0  0  0  0
   21.1980    7.9020   24.5610 C   0  0  0  0  0  0  0  0  0  0  0  0
   20.4780    7.2990   25.5230 F   0  0  0  0  0  0  0  0  0  0  0  0
   21.6900    7.1580   23.5120 C   0  0  0  0  0  0  0  0  0  0  0  0
   22.4280    7.6850   22.5210 N   0  0  0  0  0  0  0  0  0  0  0  0
   23.4420   11.8610   18.8550 C   0  0  0  0  0  0  0  0  0  0  0  0
   24.1890   12.7230   18.0730 C   0  0  0  0  0  0  0  0  0  0  0  0
   25.2890   13.3770   18.5900 C   0  0  0  0  0  0  0  0  0  0  0  0
   26.0230   14.1960   17.7930 F   0  0  0  0  0  0  0  0  0  0  0  0
   28.1910   13.6700   19.8600 C   0  0  0  0  0  0  0  0  0  0  0  0
   28.6240   11.9640   20.0900 S   0  0  0  0  0  0  0  0  0  0  0  0
   30.0740   11.8980   20.0680 O   0  0  0  0  0  0  0  0  0  0  0  0
   27.7690   11.0970   19.3410 O   0  0  0  0  0  0  0  0  0  0  0  0
   28.5916   10.5402   23.4110 H   0  0  0  0  0  0  0  0  0  0  0  0
   27.9831    9.6309   21.9864 H   0  0  0  0  0  0  0  0  0  0  0  0
   29.6557   10.2859   21.9864 H   0  0  0  0  0  0  0  0  0  0  0  0
   27.0810   13.1540   24.4380 H   0  0  0  0  0  0  0  0  0  0  0  0
   27.9340   11.6990   24.1880 H   0  0  0  0  0  0  0  0  0  0  0  0
   26.5566   15.9372   21.3669 H   0  0  0  0  0  0  0  0  0  0  0  0
   27.4661   15.9329   19.8179 H   0  0  0  0  0  0  0  0  0  0  0  0
   25.6909   15.6583   19.8179 H   0  0  0  0  0  0  0  0  0  0  0  0
   25.1798   12.2116   21.7432 H   0  0  0  0  0  0  0  0  0  0  0  0
   22.3130   11.1930   21.4440 H   0  0  0  0  0  0  0  0  0  0  0  0
   22.4687   10.9014   23.5901 H   0  0  0  0  0  0  0  0  0  0  0  0
   21.1070    9.8723   25.4250 H   0  0  0  0  0  0  0  0  0  0  0  0
   21.4682    6.0810   23.4842 H   0  0  0  0  0  0  0  0  0  0  0  0
   22.5686   11.3350   18.4421 H   0  0  0  0  0  0  0  0  0  0  0  0
   23.9024   12.8898   17.0242 H   0  0  0  0  0  0  0  0  0  0  0  0
   28.1252   13.8838   18.7830 H   0  0  0  0  0  0  0  0  0  0  0  0
   28.9646   14.2972   20.3271 H   0  0  0  0  0  0  0  0  0  0  0  0
  1  2  1  0
  2  3  1  0
  3  4  1  0
  3  5  2  0
  5  6  1  0
  6  7  1  1
  6  8  1  0
  8  9  2  0
  9 10  1  0
 10 11  1  0
 11 12  1  0
 12 13  2  0
 12 14  1  0
 14 15  2  0
 15 16  1  0
 16 17  2  0
 17 18  1  0
 17 19  1  0
 19 20  2  0
 10 21  2  0
 21 22  1  0
 22 23  2  0
 23 24  1  0
  6 25  1  0
 25 26  1  0
 26 27  2  0
 26 28  2  0
 26  2  1  0
 23  8  1  0
 20 14  1  0
  1 29  1  0
  1 30  1  0
  1 31  1  0
  4 32  1  0
  4 33  1  0
  7 34  1  0
  7 35  1  0
  7 36  1  0
  9 37  1  0
 11 38  1  0
 15 39  1  0
 16 40  1  0
 19 41  1  0
 21 42  1  0
 22 43  1  0
 25 44  1  0
 25 45  1  0
M  END
>  <meeko>  (13) 
{"is_sidechain": false}

>  <source_group>  (13) 
BACE1-401 observed AD isoform

>  <source_system>  (13) 
BACE1_verubecestat_401

>  <source_run>  (13) 
alternate_401_seed2207_ex32

>  <source_seed>  (13) 
2207

>  <vina_pose_rank>  (13) 
13

>  <vina_affinity_kcal_mol>  (13) 
-8.1489999999999991

>  <vina_rmsd_to_crystal_angstrom>  (13) 
6.6932

$$$$
BACE1_verubecestat_401__alternate_401_seed2207_ex32__pose14
     RDKit          3D

 45 47  0  0  0  0  0  0  0  0999 V2000
   17.2000    8.2410   21.5400 C   0  0  0  0  0  0  0  0  0  0  0  0
   17.9250    7.6450   22.6790 N   0  0  0  0  0  0  0  0  0  0  0  0
   18.4090    8.4060   23.7670 C   0  0  0  0  0  0  0  0  0  0  0  0
   18.0150    9.7170   23.7460 N   0  0  0  0  0  0  0  0  0  0  0  0
   19.1410    7.9180   24.7200 N   0  0  0  0  0  0  0  0  0  0  0  0
   19.6340    6.5420   24.6830 C   0  0  2  0  0  0  0  0  0  0  0  0
   20.0050    6.2710   26.1430 C   0  0  0  0  0  0  0  0  0  0  0  0
   20.8830    6.4070   23.8250 C   0  0  0  0  0  0  0  0  0  0  0  0
   21.4500    7.5160   23.2000 C   0  0  0  0  0  0  0  0  0  0  0  0
   22.5780    7.4220   22.4160 C   0  0  0  0  0  0  0  0  0  0  0  0
   23.0470    8.6140   21.8470 N   0  0  0  0  0  0  0  0  0  0  0  0
   24.2120    8.8200   21.1290 C   0  0  0  0  0  0  0  0  0  0  0  0
   25.1040    7.9950   20.9830 O   0  0  0  0  0  0  0  0  0  0  0  0
   24.3270   10.1460   20.4760 C   0  0  0  0  0  0  0  0  0  0  0  0
   23.4070   10.5240   19.5140 C   0  0  0  0  0  0  0  0  0  0  0  0
   23.5620   11.7720   18.9350 C   0  0  0  0  0  0  0  0  0  0  0  0
   24.6060   12.5870   19.3290 C   0  0  0  0  0  0  0  0  0  0  0  0
   24.8030   13.8020   18.7890 F   0  0  0  0  0  0  0  0  0  0  0  0
   25.4730   12.1200   20.2900 C   0  0  0  0  0  0  0  0  0  0  0  0
   25.3510   10.9120   20.8650 N   0  0  0  0  0  0  0  0  0  0  0  0
   23.2120    6.1990   22.2390 C   0  0  0  0  0  0  0  0  0  0  0  0
   22.6600    5.0860   22.8490 C   0  0  0  0  0  0  0  0  0  0  0  0
   21.5100    5.1900   23.6060 C   0  0  0  0  0  0  0  0  0  0  0  0
   20.9730    4.0780   24.1710 F   0  0  0  0  0  0  0  0  0  0  0  0
   18.5080    5.5960   24.3280 C   0  0  0  0  0  0  0  0  0  0  0  0
   17.9060    5.9240   22.6910 S   0  0  0  0  0  0  0  0  0  0  0  0
   16.5150    5.5090   22.6710 O   0  0  0  0  0  0  0  0  0  0  0  0
   18.8660    5.5640   21.6940 O   0  0  0  0  0  0  0  0  0  0  0  0
   16.4016    8.8973   21.9165 H   0  0  0  0  0  0  0  0  0  0  0  0
   17.8994    8.8287   20.9273 H   0  0  0  0  0  0  0  0  0  0  0  0
   16.7587    7.4411   20.9273 H   0  0  0  0  0  0  0  0  0  0  0  0
   18.3010   10.3280   24.4630 H   0  0  0  0  0  0  0  0  0  0  0  0
   17.4440   10.0490   23.0160 H   0  0  0  0  0  0  0  0  0  0  0  0
   19.2950    6.7896   26.8041 H   0  0  0  0  0  0  0  0  0  0  0  0
   19.9635    5.1891   26.3371 H   0  0  0  0  0  0  0  0  0  0  0  0
   21.0231    6.6396   26.3371 H   0  0  0  0  0  0  0  0  0  0  0  0
   20.9800    8.5009   23.3378 H   0  0  0  0  0  0  0  0  0  0  0  0
   22.4750    9.4050   21.9750 H   0  0  0  0  0  0  0  0  0  0  0  0
   22.5828    9.8574   19.2201 H   0  0  0  0  0  0  0  0  0  0  0  0
   22.8562   12.1138   18.1636 H   0  0  0  0  0  0  0  0  0  0  0  0
   26.3060   12.7669   20.6025 H   0  0  0  0  0  0  0  0  0  0  0  0
   24.1257    6.1174   21.6320 H   0  0  0  0  0  0  0  0  0  0  0  0
   23.1439    4.1055   22.7291 H   0  0  0  0  0  0  0  0  0  0  0  0
   18.8772    4.5609   24.3764 H   0  0  0  0  0  0  0  0  0  0  0  0
   17.6851    5.7414   25.0433 H   0  0  0  0  0  0  0  0  0  0  0  0
  1  2  1  0
  2  3  1  0
  3  4  1  0
  3  5  2  0
  5  6  1  0
  6  7  1  1
  6  8  1  0
  8  9  2  0
  9 10  1  0
 10 11  1  0
 11 12  1  0
 12 13  2  0
 12 14  1  0
 14 15  2  0
 15 16  1  0
 16 17  2  0
 17 18  1  0
 17 19  1  0
 19 20  2  0
 10 21  2  0
 21 22  1  0
 22 23  2  0
 23 24  1  0
  6 25  1  0
 25 26  1  0
 26 27  2  0
 26 28  2  0
 26  2  1  0
 23  8  1  0
 20 14  1  0
  1 29  1  0
  1 30  1  0
  1 31  1  0
  4 32  1  0
  4 33  1  0
  7 34  1  0
  7 35  1  0
  7 36  1  0
  9 37  1  0
 11 38  1  0
 15 39  1  0
 16 40  1  0
 19 41  1  0
 21 42  1  0
 22 43  1  0
 25 44  1  0
 25 45  1  0
M  END
>  <meeko>  (14) 
{"is_sidechain": false}

>  <source_group>  (14) 
BACE1-401 observed AD isoform

>  <source_system>  (14) 
BACE1_verubecestat_401

>  <source_run>  (14) 
alternate_401_seed2207_ex32

>  <source_seed>  (14) 
2207

>  <vina_pose_rank>  (14) 
14

>  <vina_affinity_kcal_mol>  (14) 
-8.1419999999999995

>  <vina_rmsd_to_crystal_angstrom>  (14) 
6.3663999999999996

$$$$
BACE1_verubecestat_401__alternate_401_seed2207_ex32__pose15
     RDKit          3D

 45 47  0  0  0  0  0  0  0  0999 V2000
   17.7660   15.4890   26.4050 C   0  0  0  0  0  0  0  0  0  0  0  0
   18.4440   14.1990   26.6430 N   0  0  0  0  0  0  0  0  0  0  0  0
   18.8800   13.7820   27.9200 C   0  0  0  0  0  0  0  0  0  0  0  0
   18.4840   14.6070   28.9390 N   0  0  0  0  0  0  0  0  0  0  0  0
   19.5720   12.7050   28.1300 N   0  0  0  0  0  0  0  0  0  0  0  0
   20.0690   11.8840   27.0270 C   0  0  2  0  0  0  0  0  0  0  0  0
   20.3800   10.5480   27.7070 C   0  0  0  0  0  0  0  0  0  0  0  0
   21.3540   12.4430   26.4340 C   0  0  0  0  0  0  0  0  0  0  0  0
   21.6990   12.1980   25.1060 C   0  0  0  0  0  0  0  0  0  0  0  0
   22.8560   12.6880   24.5430 C   0  0  0  0  0  0  0  0  0  0  0  0
   23.0830   12.3720   23.1980 N   0  0  0  0  0  0  0  0  0  0  0  0
   23.4040   13.2260   22.1580 C   0  0  0  0  0  0  0  0  0  0  0  0
   23.4150   14.4480   22.2290 O   0  0  0  0  0  0  0  0  0  0  0  0
   23.7900   12.5630   20.8890 C   0  0  0  0  0  0  0  0  0  0  0  0
   23.4410   11.2430   20.6650 C   0  0  0  0  0  0  0  0  0  0  0  0
   23.8290   10.6730   19.4660 C   0  0  0  0  0  0  0  0  0  0  0  0
   24.5360   11.4230   18.5450 C   0  0  0  0  0  0  0  0  0  0  0  0
   24.9420   10.9100   17.3710 F   0  0  0  0  0  0  0  0  0  0  0  0
   24.8410   12.7270   18.8610 C   0  0  0  0  0  0  0  0  0  0  0  0
   24.4830   13.3050   20.0200 N   0  0  0  0  0  0  0  0  0  0  0  0
   23.7220   13.4770   25.2910 C   0  0  0  0  0  0  0  0  0  0  0  0
   23.3970   13.7270   26.6120 C   0  0  0  0  0  0  0  0  0  0  0  0
   22.2490   13.2020   27.1720 C   0  0  0  0  0  0  0  0  0  0  0  0
   21.9680   13.4380   28.4790 F   0  0  0  0  0  0  0  0  0  0  0  0
   18.9620   11.6280   26.0300 C   0  0  0  0  0  0  0  0  0  0  0  0
   18.4280   13.1460   25.2810 S   0  0  0  0  0  0  0  0  0  0  0  0
   17.0400   12.9550   24.9010 O   0  0  0  0  0  0  0  0  0  0  0  0
   19.4300   13.6890   24.4170 O   0  0  0  0  0  0  0  0  0  0  0  0
   17.5199   15.9573   27.3694 H   0  0  0  0  0  0  0  0  0  0  0  0
   18.4316   16.1532   25.8341 H   0  0  0  0  0  0  0  0  0  0  0  0
   16.8415   15.3175   25.8341 H   0  0  0  0  0  0  0  0  0  0  0  0
   18.7390   14.4000   29.8670 H   0  0  0  0  0  0  0  0  0  0  0  0
   17.9440   15.4070   28.7440 H   0  0  0  0  0  0  0  0  0  0  0  0
   20.3500   10.6767   28.7990 H   0  0  0  0  0  0  0  0  0  0  0  0
   19.6319    9.8001   27.4053 H   0  0  0  0  0  0  0  0  0  0  0  0
   21.3815   10.2074   27.4053 H   0  0  0  0  0  0  0  0  0  0  0  0
   21.0228   11.5915   24.4856 H   0  0  0  0  0  0  0  0  0  0  0  0
   23.0050   11.4190   22.9620 H   0  0  0  0  0  0  0  0  0  0  0  0
   22.8756   10.6679   21.4131 H   0  0  0  0  0  0  0  0  0  0  0  0
   23.5756    9.6255   19.2459 H   0  0  0  0  0  0  0  0  0  0  0  0
   25.4049   13.3249   18.1299 H   0  0  0  0  0  0  0  0  0  0  0  0
   24.6388   13.8904   24.8455 H   0  0  0  0  0  0  0  0  0  0  0  0
   24.0623   14.3528   27.2251 H   0  0  0  0  0  0  0  0  0  0  0  0
   19.3312   10.9494   25.2469 H   0  0  0  0  0  0  0  0  0  0  0  0
   18.1094   11.1749   26.5571 H   0  0  0  0  0  0  0  0  0  0  0  0
  1  2  1  0
  2  3  1  0
  3  4  1  0
  3  5  2  0
  5  6  1  0
  6  7  1  1
  6  8  1  0
  8  9  2  0
  9 10  1  0
 10 11  1  0
 11 12  1  0
 12 13  2  0
 12 14  1  0
 14 15  2  0
 15 16  1  0
 16 17  2  0
 17 18  1  0
 17 19  1  0
 19 20  2  0
 10 21  2  0
 21 22  1  0
 22 23  2  0
 23 24  1  0
  6 25  1  0
 25 26  1  0
 26 27  2  0
 26 28  2  0
 26  2  1  0
 23  8  1  0
 20 14  1  0
  1 29  1  0
  1 30  1  0
  1 31  1  0
  4 32  1  0
  4 33  1  0
  7 34  1  0
  7 35  1  0
  7 36  1  0
  9 37  1  0
 11 38  1  0
 15 39  1  0
 16 40  1  0
 19 41  1  0
 21 42  1  0
 22 43  1  0
 25 44  1  0
 25 45  1  0
M  END
>  <meeko>  (15) 
{"is_sidechain": false}

>  <source_group>  (15) 
BACE1-401 observed AD isoform

>  <source_system>  (15) 
BACE1_verubecestat_401

>  <source_run>  (15) 
alternate_401_seed2207_ex32

>  <source_seed>  (15) 
2207

>  <vina_pose_rank>  (15) 
15

>  <vina_affinity_kcal_mol>  (15) 
-8.0679999999999996

>  <vina_rmsd_to_crystal_angstrom>  (15) 
6.5810000000000004

$$$$
BACE1_verubecestat_401__alternate_401_seed2207_ex32__pose16
     RDKit          3D

 45 47  0  0  0  0  0  0  0  0999 V2000
   29.3040   12.2090   20.8860 C   0  0  0  0  0  0  0  0  0  0  0  0
   27.9240   12.7130   21.0260 N   0  0  0  0  0  0  0  0  0  0  0  0
   27.1940   12.6350   22.2330 C   0  0  0  0  0  0  0  0  0  0  0  0
   27.9300   12.1910   23.2990 N   0  0  0  0  0  0  0  0  0  0  0  0
   25.9460   12.9720   22.3460 N   0  0  0  0  0  0  0  0  0  0  0  0
   25.1460   13.3540   21.1830 C   0  0  2  0  0  0  0  0  0  0  0  0
   23.9640   14.0980   21.8100 C   0  0  0  0  0  0  0  0  0  0  0  0
   24.6200   12.1420   20.4290 C   0  0  0  0  0  0  0  0  0  0  0  0
   24.9980   10.8500   20.7910 C   0  0  0  0  0  0  0  0  0  0  0  0
   24.5400    9.7350   20.1250 C   0  0  0  0  0  0  0  0  0  0  0  0
   24.9940    8.4950   20.5910 N   0  0  0  0  0  0  0  0  0  0  0  0
   25.7660    7.5600   19.9260 C   0  0  0  0  0  0  0  0  0  0  0  0
   26.0770    7.6160   18.7430 O   0  0  0  0  0  0  0  0  0  0  0  0
   26.2620    6.4380   20.7600 C   0  0  0  0  0  0  0  0  0  0  0  0
   25.3650    5.5440   21.3190 C   0  0  0  0  0  0  0  0  0  0  0  0
   25.8820    4.5180   22.0900 C   0  0  0  0  0  0  0  0  0  0  0  0
   27.2480    4.4150   22.2730 C   0  0  0  0  0  0  0  0  0  0  0  0
   27.7950    3.4410   23.0200 F   0  0  0  0  0  0  0  0  0  0  0  0
   28.0590    5.3560   21.6800 C   0  0  0  0  0  0  0  0  0  0  0  0
   27.5860    6.3660   20.9310 N   0  0  0  0  0  0  0  0  0  0  0  0
   23.6520    9.8650   19.0650 C   0  0  0  0  0  0  0  0  0  0  0  0
   23.2690   11.1410   18.6900 C   0  0  0  0  0  0  0  0  0  0  0  0
   23.7620   12.2510   19.3460 C   0  0  0  0  0  0  0  0  0  0  0  0
   23.3930   13.4930   18.9400 F   0  0  0  0  0  0  0  0  0  0  0  0
   25.9020   14.3550   20.3380 C   0  0  0  0  0  0  0  0  0  0  0  0
   27.3780   13.6270   19.6730 S   0  0  0  0  0  0  0  0  0  0  0  0
   28.3230   14.7120   19.4780 O   0  0  0  0  0  0  0  0  0  0  0  0
   27.0790   12.6350   18.6880 O   0  0  0  0  0  0  0  0  0  0  0  0
   29.7393   12.0500   21.8836 H   0  0  0  0  0  0  0  0  0  0  0  0
   29.2925   11.2570   20.3350 H   0  0  0  0  0  0  0  0  0  0  0  0
   29.9088   12.9443   20.3350 H   0  0  0  0  0  0  0  0  0  0  0  0
   27.5090   12.1020   24.1850 H   0  0  0  0  0  0  0  0  0  0  0  0
   28.8800   11.9610   23.1800 H   0  0  0  0  0  0  0  0  0  0  0  0
   24.0404   14.0499   22.9063 H   0  0  0  0  0  0  0  0  0  0  0  0
   23.9796   15.1494   21.4871 H   0  0  0  0  0  0  0  0  0  0  0  0
   23.0227   13.6292   21.4871 H   0  0  0  0  0  0  0  0  0  0  0  0
   25.6864   10.7164   21.6385 H   0  0  0  0  0  0  0  0  0  0  0  0
   24.7310    8.2590   21.5100 H   0  0  0  0  0  0  0  0  0  0  0  0
   24.2818    5.6455   21.1563 H   0  0  0  0  0  0  0  0  0  0  0  0
   25.2069    3.7855   22.5565 H   0  0  0  0  0  0  0  0  0  0  0  0
   29.1464    5.2772   21.8264 H   0  0  0  0  0  0  0  0  0  0  0  0
   23.2646    8.9800   18.5391 H   0  0  0  0  0  0  0  0  0  0  0  0
   22.5619   11.2724   17.8577 H   0  0  0  0  0  0  0  0  0  0  0  0
   25.2587   14.6875   19.5100 H   0  0  0  0  0  0  0  0  0  0  0  0
   26.1833   15.2103   20.9699 H   0  0  0  0  0  0  0  0  0  0  0  0
  1  2  1  0
  2  3  1  0
  3  4  1  0
  3  5  2  0
  5  6  1  0
  6  7  1  1
  6  8  1  0
  8  9  2  0
  9 10  1  0
 10 11  1  0
 11 12  1  0
 12 13  2  0
 12 14  1  0
 14 15  2  0
 15 16  1  0
 16 17  2  0
 17 18  1  0
 17 19  1  0
 19 20  2  0
 10 21  2  0
 21 22  1  0
 22 23  2  0
 23 24  1  0
  6 25  1  0
 25 26  1  0
 26 27  2  0
 26 28  2  0
 26  2  1  0
 23  8  1  0
 20 14  1  0
  1 29  1  0
  1 30  1  0
  1 31  1  0
  4 32  1  0
  4 33  1  0
  7 34  1  0
  7 35  1  0
  7 36  1  0
  9 37  1  0
 11 38  1  0
 15 39  1  0
 16 40  1  0
 19 41  1  0
 21 42  1  0
 22 43  1  0
 25 44  1  0
 25 45  1  0
M  END
>  <meeko>  (16) 
{"is_sidechain": false}

>  <source_group>  (16) 
BACE1-401 observed AD isoform

>  <source_system>  (16) 
BACE1_verubecestat_401

>  <source_run>  (16) 
alternate_401_seed2207_ex32

>  <source_seed>  (16) 
2207

>  <vina_pose_rank>  (16) 
16

>  <vina_affinity_kcal_mol>  (16) 
-8.0579999999999998

>  <vina_rmsd_to_crystal_angstrom>  (16) 
5.1936

$$$$
BACE1_verubecestat_401__alternate_401_seed2207_ex32__pose17
     RDKit          3D

 45 47  0  0  0  0  0  0  0  0999 V2000
   26.3620   15.7290   23.0730 C   0  0  0  0  0  0  0  0  0  0  0  0
   26.8570   14.6010   22.2590 N   0  0  0  0  0  0  0  0  0  0  0  0
   27.4080   14.7670   20.9690 C   0  0  0  0  0  0  0  0  0  0  0  0
   27.5840   16.0740   20.6040 N   0  0  0  0  0  0  0  0  0  0  0  0
   27.7470   13.7810   20.1970 N   0  0  0  0  0  0  0  0  0  0  0  0
   27.4680   12.3920   20.5590 C   0  0  2  0  0  0  0  0  0  0  0  0
   28.4210   11.6040   19.6550 C   0  0  0  0  0  0  0  0  0  0  0  0
   26.0380   11.9930   20.2300 C   0  0  0  0  0  0  0  0  0  0  0  0
   25.3660   11.0350   20.9870 C   0  0  0  0  0  0  0  0  0  0  0  0
   24.0730   10.6520   20.7110 C   0  0  0  0  0  0  0  0  0  0  0  0
   23.5120    9.6820   21.5510 N   0  0  0  0  0  0  0  0  0  0  0  0
   22.8070    9.8690   22.7260 C   0  0  0  0  0  0  0  0  0  0  0  0
   22.6690   10.9410   23.3010 O   0  0  0  0  0  0  0  0  0  0  0  0
   22.1590    8.6540   23.2770 C   0  0  0  0  0  0  0  0  0  0  0  0
   22.2970    7.4410   22.6240 C   0  0  0  0  0  0  0  0  0  0  0  0
   21.6690    6.3410   23.1800 C   0  0  0  0  0  0  0  0  0  0  0  0
   20.9420    6.4800   24.3470 C   0  0  0  0  0  0  0  0  0  0  0  0
   20.3080    5.4430   24.9180 F   0  0  0  0  0  0  0  0  0  0  0  0
   20.8580    7.7290   24.9190 C   0  0  0  0  0  0  0  0  0  0  0  0
   21.4510    8.8170   24.3990 N   0  0  0  0  0  0  0  0  0  0  0  0
   23.3760   11.2370   19.6610 C   0  0  0  0  0  0  0  0  0  0  0  0
   24.0290   12.1870   18.8960 C   0  0  0  0  0  0  0  0  0  0  0  0
   25.3370   12.5380   19.1650 C   0  0  0  0  0  0  0  0  0  0  0  0
   25.9650   13.4520   18.3810 F   0  0  0  0  0  0  0  0  0  0  0  0
   27.8940   12.1310   21.9860 C   0  0  0  0  0  0  0  0  0  0  0  0
   26.9370   13.1100   23.1150 S   0  0  0  0  0  0  0  0  0  0  0  0
   27.7710   13.3290   24.2830 O   0  0  0  0  0  0  0  0  0  0  0  0
   25.5760   12.6730   23.1690 O   0  0  0  0  0  0  0  0  0  0  0  0
   26.4688   15.4856   24.1404 H   0  0  0  0  0  0  0  0  0  0  0  0
   26.9466   16.6318   22.8425 H   0  0  0  0  0  0  0  0  0  0  0  0
   25.3018   15.9100   22.8425 H   0  0  0  0  0  0  0  0  0  0  0  0
   27.9630   16.2920   19.7210 H   0  0  0  0  0  0  0  0  0  0  0  0
   27.3310   16.7970   21.2230 H   0  0  0  0  0  0  0  0  0  0  0  0
   29.1208   11.0254   20.2758 H   0  0  0  0  0  0  0  0  0  0  0  0
   27.8409   10.9182   19.0200 H   0  0  0  0  0  0  0  0  0  0  0  0
   28.9856   12.3026   19.0200 H   0  0  0  0  0  0  0  0  0  0  0  0
   25.8876   10.5682   21.8355 H   0  0  0  0  0  0  0  0  0  0  0  0
   23.6350    8.7460   21.2680 H   0  0  0  0  0  0  0  0  0  0  0  0
   22.8841    7.3552   21.6977 H   0  0  0  0  0  0  0  0  0  0  0  0
   21.7482    5.3573   22.6941 H   0  0  0  0  0  0  0  0  0  0  0  0
   20.2775    7.8421   25.8465 H   0  0  0  0  0  0  0  0  0  0  0  0
   22.3356   10.9532   19.4443 H   0  0  0  0  0  0  0  0  0  0  0  0
   23.4987   12.6695   18.0617 H   0  0  0  0  0  0  0  0  0  0  0  0
   27.7471   11.0657   22.2176 H   0  0  0  0  0  0  0  0  0  0  0  0
   28.9546   12.4022   22.0938 H   0  0  0  0  0  0  0  0  0  0  0  0
  1  2  1  0
  2  3  1  0
  3  4  1  0
  3  5  2  0
  5  6  1  0
  6  7  1  6
  6  8  1  0
  8  9  2  0
  9 10  1  0
 10 11  1  0
 11 12  1  0
 12 13  2  0
 12 14  1  0
 14 15  2  0
 15 16  1  0
 16 17  2  0
 17 18  1  0
 17 19  1  0
 19 20  2  0
 10 21  2  0
 21 22  1  0
 22 23  2  0
 23 24  1  0
  6 25  1  0
 25 26  1  0
 26 27  2  0
 26 28  2  0
 26  2  1  0
 23  8  1  0
 20 14  1  0
  1 29  1  0
  1 30  1  0
  1 31  1  0
  4 32  1  0
  4 33  1  0
  7 34  1  0
  7 35  1  0
  7 36  1  0
  9 37  1  0
 11 38  1  0
 15 39  1  0
 16 40  1  0
 19 41  1  0
 21 42  1  0
 22 43  1  0
 25 44  1  0
 25 45  1  0
M  END
>  <meeko>  (17) 
{"is_sidechain": false}

>  <source_group>  (17) 
BACE1-401 observed AD isoform

>  <source_system>  (17) 
BACE1_verubecestat_401

>  <source_run>  (17) 
alternate_401_seed2207_ex32

>  <source_seed>  (17) 
2207

>  <vina_pose_rank>  (17) 
17

>  <vina_affinity_kcal_mol>  (17) 
-7.9989999999999997

>  <vina_rmsd_to_crystal_angstrom>  (17) 
6.7422000000000004

$$$$
BACE1_verubecestat_401__alternate_401_seed2207_ex32__pose18
     RDKit          3D

 45 47  0  0  0  0  0  0  0  0999 V2000
   16.9530    4.2300   20.3000 C   0  0  0  0  0  0  0  0  0  0  0  0
   17.4640    5.2230   21.2660 N   0  0  0  0  0  0  0  0  0  0  0  0
   18.2020    6.3640   20.8800 C   0  0  0  0  0  0  0  0  0  0  0  0
   18.2710    6.5480   19.5250 N   0  0  0  0  0  0  0  0  0  0  0  0
   18.7500    7.1870   21.7200 N   0  0  0  0  0  0  0  0  0  0  0  0
   18.7510    6.9290   23.1590 C   0  0  2  0  0  0  0  0  0  0  0  0
   19.0450    8.3080   23.7550 C   0  0  0  0  0  0  0  0  0  0  0  0
   19.8600    5.9710   23.5660 C   0  0  0  0  0  0  0  0  0  0  0  0
   20.8910    5.6480   22.6860 C   0  0  0  0  0  0  0  0  0  0  0  0
   21.9060    4.7820   23.0270 C   0  0  0  0  0  0  0  0  0  0  0  0
   22.8820    4.5440   22.0500 N   0  0  0  0  0  0  0  0  0  0  0  0
   24.2370    4.3280   22.2280 C   0  0  0  0  0  0  0  0  0  0  0  0
   24.8350    4.4420   23.2900 O   0  0  0  0  0  0  0  0  0  0  0  0
   24.9730    3.8950   21.0160 C   0  0  0  0  0  0  0  0  0  0  0  0
   25.3340    4.8250   20.0560 C   0  0  0  0  0  0  0  0  0  0  0  0
   26.0180    4.3650   18.9450 C   0  0  0  0  0  0  0  0  0  0  0  0
   26.3170    3.0210   18.8290 C   0  0  0  0  0  0  0  0  0  0  0  0
   26.9710    2.5270   17.7640 F   0  0  0  0  0  0  0  0  0  0  0  0
   25.9110    2.1720   19.8330 C   0  0  0  0  0  0  0  0  0  0  0  0
   25.2410    2.5880   20.9200 N   0  0  0  0  0  0  0  0  0  0  0  0
   21.9470    4.2100   24.2920 C   0  0  0  0  0  0  0  0  0  0  0  0
   20.9300    4.5170   25.1780 C   0  0  0  0  0  0  0  0  0  0  0  0
   19.9010    5.3620   24.8110 C   0  0  0  0  0  0  0  0  0  0  0  0
   18.8990    5.6240   25.6890 F   0  0  0  0  0  0  0  0  0  0  0  0
   17.3640    6.5350   23.6170 C   0  0  0  0  0  0  0  0  0  0  0  0
   16.8670    5.0050   22.8660 S   0  0  0  0  0  0  0  0  0  0  0  0
   15.4170    5.0320   22.7920 O   0  0  0  0  0  0  0  0  0  0  0  0
   17.6250    3.9010   23.3660 O   0  0  0  0  0  0  0  0  0  0  0  0
   16.5157    3.3801   20.8445 H   0  0  0  0  0  0  0  0  0  0  0  0
   16.1827    4.6960   19.6679 H   0  0  0  0  0  0  0  0  0  0  0  0
   17.7799    3.8741   19.6679 H   0  0  0  0  0  0  0  0  0  0  0  0
   18.7640    7.3170   19.1580 H   0  0  0  0  0  0  0  0  0  0  0  0
   17.8270    5.9130   18.9180 H   0  0  0  0  0  0  0  0  0  0  0  0
   19.0312    8.2434   24.8530 H   0  0  0  0  0  0  0  0  0  0  0  0
   20.0359    8.6485   23.4201 H   0  0  0  0  0  0  0  0  0  0  0  0
   18.2791    9.0230   23.4201 H   0  0  0  0  0  0  0  0  0  0  0  0
   20.8942    6.1008   21.6835 H   0  0  0  0  0  0  0  0  0  0  0  0
   22.5630    4.5280   21.1190 H   0  0  0  0  0  0  0  0  0  0  0  0
   25.0861    5.8904   20.1724 H   0  0  0  0  0  0  0  0  0  0  0  0
   26.3232    5.0677   18.1556 H   0  0  0  0  0  0  0  0  0  0  0  0
   26.1465    1.1015   19.7408 H   0  0  0  0  0  0  0  0  0  0  0  0
   22.7642    3.5327   24.5808 H   0  0  0  0  0  0  0  0  0  0  0  0
   20.9410    4.0823   26.1884 H   0  0  0  0  0  0  0  0  0  0  0  0
   17.3646    6.4171   24.7107 H   0  0  0  0  0  0  0  0  0  0  0  0
   16.6559    7.3221   23.3187 H   0  0  0  0  0  0  0  0  0  0  0  0
  1  2  1  0
  2  3  1  0
  3  4  1  0
  3  5  2  0
  5  6  1  0
  6  7  1  1
  6  8  1  0
  8  9  2  0
  9 10  1  0
 10 11  1  0
 11 12  1  0
 12 13  2  0
 12 14  1  0
 14 15  2  0
 15 16  1  0
 16 17  2  0
 17 18  1  0
 17 19  1  0
 19 20  2  0
 10 21  2  0
 21 22  1  0
 22 23  2  0
 23 24  1  0
  6 25  1  0
 25 26  1  0
 26 27  2  0
 26 28  2  0
 26  2  1  0
 23  8  1  0
 20 14  1  0
  1 29  1  0
  1 30  1  0
  1 31  1  0
  4 32  1  0
  4 33  1  0
  7 34  1  0
  7 35  1  0
  7 36  1  0
  9 37  1  0
 11 38  1  0
 15 39  1  0
 16 40  1  0
 19 41  1  0
 21 42  1  0
 22 43  1  0
 25 44  1  0
 25 45  1  0
M  END
>  <meeko>  (18) 
{"is_sidechain": false}

>  <source_group>  (18) 
BACE1-401 observed AD isoform

>  <source_system>  (18) 
BACE1_verubecestat_401

>  <source_run>  (18) 
alternate_401_seed2207_ex32

>  <source_seed>  (18) 
2207

>  <vina_pose_rank>  (18) 
18

>  <vina_affinity_kcal_mol>  (18) 
-7.9800000000000004

>  <vina_rmsd_to_crystal_angstrom>  (18) 
7.7800000000000002

$$$$
BACE1_verubecestat_401__alternate_401_seed2207_ex32__pose19
     RDKit          3D

 45 47  0  0  0  0  0  0  0  0999 V2000
   23.4630   13.4320   18.3560 C   0  0  0  0  0  0  0  0  0  0  0  0
   24.5990   12.8030   19.0590 N   0  0  0  0  0  0  0  0  0  0  0  0
   24.5480   11.4940   19.5870 C   0  0  0  0  0  0  0  0  0  0  0  0
   23.4110   10.8060   19.2570 N   0  0  0  0  0  0  0  0  0  0  0  0
   25.4940   10.9660   20.3010 N   0  0  0  0  0  0  0  0  0  0  0  0
   26.6590   11.7410   20.7260 C   0  0  2  0  0  0  0  0  0  0  0  0
   27.6760   10.6580   21.0940 C   0  0  0  0  0  0  0  0  0  0  0  0
   26.3660   12.5800   21.9610 C   0  0  0  0  0  0  0  0  0  0  0  0
   25.0870   12.6250   22.5140 C   0  0  0  0  0  0  0  0  0  0  0  0
   24.7930   13.3770   23.6290 C   0  0  0  0  0  0  0  0  0  0  0  0
   23.4690   13.3340   24.0840 N   0  0  0  0  0  0  0  0  0  0  0  0
   22.8750   12.3900   24.9030 C   0  0  0  0  0  0  0  0  0  0  0  0
   23.3970   11.3430   25.2650 O   0  0  0  0  0  0  0  0  0  0  0  0
   21.5130   12.7330   25.3800 C   0  0  0  0  0  0  0  0  0  0  0  0
   20.5110   13.0130   24.4670 C   0  0  0  0  0  0  0  0  0  0  0  0
   19.2610   13.3290   24.9680 C   0  0  0  0  0  0  0  0  0  0  0  0
   19.0520   13.3510   26.3340 C   0  0  0  0  0  0  0  0  0  0  0  0
   17.8570   13.6610   26.8660 F   0  0  0  0  0  0  0  0  0  0  0  0
   20.1130   13.0630   27.1620 C   0  0  0  0  0  0  0  0  0  0  0  0
   21.3390   12.7590   26.7050 N   0  0  0  0  0  0  0  0  0  0  0  0
   25.7870   14.1110   24.2640 C   0  0  0  0  0  0  0  0  0  0  0  0
   27.0620   14.0810   23.7270 C   0  0  0  0  0  0  0  0  0  0  0  0
   27.3350   13.3470   22.5890 C   0  0  0  0  0  0  0  0  0  0  0  0
   28.5880   13.3570   22.0660 F   0  0  0  0  0  0  0  0  0  0  0  0
   27.2300   12.5060   19.5530 C   0  0  0  0  0  0  0  0  0  0  0  0
   26.0630   13.7030   18.9560 S   0  0  0  0  0  0  0  0  0  0  0  0
   26.3510   13.8950   17.5470 O   0  0  0  0  0  0  0  0  0  0  0  0
   25.8760   14.7690   19.8910 O   0  0  0  0  0  0  0  0  0  0  0  0
   22.7490   13.8274   19.0934 H   0  0  0  0  0  0  0  0  0  0  0  0
   23.8319   14.2543   17.7254 H   0  0  0  0  0  0  0  0  0  0  0  0
   22.9618   12.6829   17.7254 H   0  0  0  0  0  0  0  0  0  0  0  0
   23.2840    9.8840   19.5780 H   0  0  0  0  0  0  0  0  0  0  0  0
   22.7220   11.2320   18.6980 H   0  0  0  0  0  0  0  0  0  0  0  0
   27.7489   10.5803   22.1888 H   0  0  0  0  0  0  0  0  0  0  0  0
   27.3503    9.6928   20.6788 H   0  0  0  0  0  0  0  0  0  0  0  0
   28.6597   10.9225   20.6788 H   0  0  0  0  0  0  0  0  0  0  0  0
   24.2843   12.0388   22.0427 H   0  0  0  0  0  0  0  0  0  0  0  0
   22.8880   14.0690   23.7840 H   0  0  0  0  0  0  0  0  0  0  0  0
   20.7016   12.9853   23.3840 H   0  0  0  0  0  0  0  0  0  0  0  0
   18.4347   13.5624   24.2804 H   0  0  0  0  0  0  0  0  0  0  0  0
   19.9492   13.0827   28.2496 H   0  0  0  0  0  0  0  0  0  0  0  0
   25.5669   14.6989   25.1673 H   0  0  0  0  0  0  0  0  0  0  0  0
   27.8689   14.6492   24.2128 H   0  0  0  0  0  0  0  0  0  0  0  0
   28.1470   13.0234   19.8714 H   0  0  0  0  0  0  0  0  0  0  0  0
   27.4537   11.7960   18.7431 H   0  0  0  0  0  0  0  0  0  0  0  0
  1  2  1  0
  2  3  1  0
  3  4  1  0
  3  5  2  0
  5  6  1  0
  6  7  1  1
  6  8  1  0
  8  9  2  0
  9 10  1  0
 10 11  1  0
 11 12  1  0
 12 13  2  0
 12 14  1  0
 14 15  2  0
 15 16  1  0
 16 17  2  0
 17 18  1  0
 17 19  1  0
 19 20  2  0
 10 21  2  0
 21 22  1  0
 22 23  2  0
 23 24  1  0
  6 25  1  0
 25 26  1  0
 26 27  2  0
 26 28  2  0
 26  2  1  0
 23  8  1  0
 20 14  1  0
  1 29  1  0
  1 30  1  0
  1 31  1  0
  4 32  1  0
  4 33  1  0
  7 34  1  0
  7 35  1  0
  7 36  1  0
  9 37  1  0
 11 38  1  0
 15 39  1  0
 16 40  1  0
 19 41  1  0
 21 42  1  0
 22 43  1  0
 25 44  1  0
 25 45  1  0
M  END
>  <meeko>  (19) 
{"is_sidechain": false}

>  <source_group>  (19) 
BACE1-401 observed AD isoform

>  <source_system>  (19) 
BACE1_verubecestat_401

>  <source_run>  (19) 
alternate_401_seed2207_ex32

>  <source_seed>  (19) 
2207

>  <vina_pose_rank>  (19) 
19

>  <vina_affinity_kcal_mol>  (19) 
-7.976

>  <vina_rmsd_to_crystal_angstrom>  (19) 
7.8739999999999997

$$$$
BACE1_verubecestat_401__alternate_401_seed2207_ex32__pose20
     RDKit          3D

 45 47  0  0  0  0  0  0  0  0999 V2000
   27.4620   13.6960   24.0180 C   0  0  0  0  0  0  0  0  0  0  0  0
   27.2340   13.9490   22.5820 N   0  0  0  0  0  0  0  0  0  0  0  0
   26.2470   14.8390   22.1030 C   0  0  0  0  0  0  0  0  0  0  0  0
   25.6250   15.5590   23.0880 N   0  0  0  0  0  0  0  0  0  0  0  0
   25.9610   14.9910   20.8470 N   0  0  0  0  0  0  0  0  0  0  0  0
   26.5640   14.1500   19.8150 C   0  0  2  0  0  0  0  0  0  0  0  0
   26.3310   14.9590   18.5350 C   0  0  0  0  0  0  0  0  0  0  0  0
   25.8560   12.8100   19.6840 C   0  0  0  0  0  0  0  0  0  0  0  0
   24.9110   12.4010   20.6230 C   0  0  0  0  0  0  0  0  0  0  0  0
   24.2570   11.1930   20.5320 C   0  0  0  0  0  0  0  0  0  0  0  0
   23.3280   10.9040   21.5410 N   0  0  0  0  0  0  0  0  0  0  0  0
   23.0650    9.6850   22.1390 C   0  0  0  0  0  0  0  0  0  0  0  0
   23.5270    8.6100   21.7810 O   0  0  0  0  0  0  0  0  0  0  0  0
   22.1750    9.7410   23.3240 C   0  0  0  0  0  0  0  0  0  0  0  0
   21.3330    8.6780   23.6070 C   0  0  0  0  0  0  0  0  0  0  0  0
   20.5230    8.7840   24.7230 C   0  0  0  0  0  0  0  0  0  0  0  0
   20.5780    9.9200   25.5080 C   0  0  0  0  0  0  0  0  0  0  0  0
   19.8040   10.0710   26.5960 F   0  0  0  0  0  0  0  0  0  0  0  0
   21.4440   10.9260   25.1420 C   0  0  0  0  0  0  0  0  0  0  0  0
   22.2380   10.8540   24.0610 N   0  0  0  0  0  0  0  0  0  0  0  0
   24.5070   10.3370   19.4670 C   0  0  0  0  0  0  0  0  0  0  0  0
   25.4450   10.7250   18.5270 C   0  0  0  0  0  0  0  0  0  0  0  0
   26.1170   11.9260   18.6490 C   0  0  0  0  0  0  0  0  0  0  0  0
   27.0540   12.2700   17.7290 F   0  0  0  0  0  0  0  0  0  0  0  0
   28.0600   14.0670   20.0210 C   0  0  0  0  0  0  0  0  0  0  0  0
   28.4370   13.2640   21.5580 S   0  0  0  0  0  0  0  0  0  0  0  0
   29.7200   13.7860   21.9940 O   0  0  0  0  0  0  0  0  0  0  0  0
   28.1060   11.8740   21.5230 O   0  0  0  0  0  0  0  0  0  0  0  0
   26.8431   14.3828   24.6141 H   0  0  0  0  0  0  0  0  0  0  0  0
   27.1892   12.6571   24.2551 H   0  0  0  0  0  0  0  0  0  0  0  0
   28.5236   13.8596   24.2551 H   0  0  0  0  0  0  0  0  0  0  0  0
   24.9210   16.2060   22.8530 H   0  0  0  0  0  0  0  0  0  0  0  0
   25.8810   15.4290   24.0290 H   0  0  0  0  0  0  0  0  0  0  0  0
   26.0354   15.9852   18.7986 H   0  0  0  0  0  0  0  0  0  0  0  0
   27.2582   14.9849   17.9437 H   0  0  0  0  0  0  0  0  0  0  0  0
   25.5321   14.4877   17.9437 H   0  0  0  0  0  0  0  0  0  0  0  0
   24.6793   13.0672   21.4671 H   0  0  0  0  0  0  0  0  0  0  0  0
   22.7960   11.6660   21.8650 H   0  0  0  0  0  0  0  0  0  0  0  0
   21.3095    7.7830   22.9679 H   0  0  0  0  0  0  0  0  0  0  0  0
   19.8363    7.9657   24.9853 H   0  0  0  0  0  0  0  0  0  0  0  0
   21.4877   11.8318   25.7646 H   0  0  0  0  0  0  0  0  0  0  0  0
   23.9748    9.3788   19.3738 H   0  0  0  0  0  0  0  0  0  0  0  0
   25.6587   10.0683   17.6708 H   0  0  0  0  0  0  0  0  0  0  0  0
   28.5072   13.4944   19.1951 H   0  0  0  0  0  0  0  0  0  0  0  0
   28.4713   15.0870   20.0443 H   0  0  0  0  0  0  0  0  0  0  0  0
  1  2  1  0
  2  3  1  0
  3  4  1  0
  3  5  2  0
  5  6  1  0
  6  7  1  6
  6  8  1  0
  8  9  2  0
  9 10  1  0
 10 11  1  0
 11 12  1  0
 12 13  2  0
 12 14  1  0
 14 15  2  0
 15 16  1  0
 16 17  2  0
 17 18  1  0
 17 19  1  0
 19 20  2  0
 10 21  2  0
 21 22  1  0
 22 23  2  0
 23 24  1  0
  6 25  1  0
 25 26  1  0
 26 27  2  0
 26 28  2  0
 26  2  1  0
 23  8  1  0
 20 14  1  0
  1 29  1  0
  1 30  1  0
  1 31  1  0
  4 32  1  0
  4 33  1  0
  7 34  1  0
  7 35  1  0
  7 36  1  0
  9 37  1  0
 11 38  1  0
 15 39  1  0
 16 40  1  0
 19 41  1  0
 21 42  1  0
 22 43  1  0
 25 44  1  0
 25 45  1  0
M  END
>  <meeko>  (20) 
{"is_sidechain": false}

>  <source_group>  (20) 
BACE1-401 observed AD isoform

>  <source_system>  (20) 
BACE1_verubecestat_401

>  <source_run>  (20) 
alternate_401_seed2207_ex32

>  <source_seed>  (20) 
2207

>  <vina_pose_rank>  (20) 
20

>  <vina_affinity_kcal_mol>  (20) 
-7.9189999999999996

>  <vina_rmsd_to_crystal_angstrom>  (20) 
6.9337

$$$$
