FYN_saracatinib__vina_seed6619_ex64__pose01
     RDKit          3D

 72 77  0  0  0  0  0  0  0  0999 V2000
   -9.1380   13.7840   -0.1440 C   0  0  0  0  0  0  0  0  0  0  0  0
   -8.4590   13.8370   -1.4270 N   0  0  0  0  0  0  0  0  0  0  0  0
   -9.3220   13.3160   -2.4730 C   0  0  0  0  0  0  0  0  0  0  0  0
   -8.6630   13.4140   -3.8560 C   0  0  0  0  0  0  0  0  0  0  0  0
   -8.2670   14.7800   -4.1880 N   0  0  0  0  0  0  0  0  0  0  0  0
   -7.5910   14.7780   -5.4800 C   0  0  0  0  0  0  0  0  0  0  0  0
   -7.9820   15.9010   -6.4560 C   0  0  0  0  0  0  0  0  0  0  0  0
   -9.3380   16.2620   -6.3430 O   0  0  0  0  0  0  0  0  0  0  0  0
  -10.1160   16.0190   -7.4480 C   0  0  0  0  0  0  0  0  0  0  0  0
  -11.2200   16.7230   -7.7240 C   0  0  0  0  0  0  0  0  0  0  0  0
  -11.9670   16.4610   -8.8060 C   0  0  0  0  0  0  0  0  0  0  0  0
  -11.6600   15.4680   -9.6870 C   0  0  0  0  0  0  0  0  0  0  0  0
  -10.5440   14.7330   -9.4230 C   0  0  0  0  0  0  0  0  0  0  0  0
  -10.1300   13.7140  -10.2600 O   0  0  0  0  0  0  0  0  0  0  0  0
  -10.0480   12.3710   -9.8470 C   0  0  0  0  0  0  0  0  0  0  0  0
  -11.1650   11.9600   -8.8870 C   0  0  0  0  0  0  0  0  0  0  0  0
  -11.2490   10.4430   -8.7580 C   0  0  0  0  0  0  0  0  0  0  0  0
  -11.4280    9.8430  -10.0180 O   0  0  0  0  0  0  0  0  0  0  0  0
  -10.2970   10.0490  -10.8210 C   0  0  0  0  0  0  0  0  0  0  0  0
  -10.1500   11.5350  -11.1320 C   0  0  0  0  0  0  0  0  0  0  0  0
   -9.8190   15.0400   -8.3230 C   0  0  0  0  0  0  0  0  0  0  0  0
  -12.5050   15.3130  -10.7470 C   0  0  0  0  0  0  0  0  0  0  0  0
  -12.5440   14.5060  -11.7420 N   0  0  0  0  0  0  0  0  0  0  0  0
  -13.3920   14.1270  -12.6230 C   0  0  0  0  0  0  0  0  0  0  0  0
  -14.1210   12.9930  -12.4220 C   0  0  0  0  0  0  0  0  0  0  0  0
  -13.9850   11.9870  -11.0080 Cl  0  0  0  0  0  0  0  0  0  0  0  0
  -15.0320   12.5750  -13.3230 C   0  0  0  0  0  0  0  0  0  0  0  0
  -15.2550   13.2490  -14.4600 C   0  0  0  0  0  0  0  0  0  0  0  0
  -14.5420   14.3590  -14.6720 C   0  0  0  0  0  0  0  0  0  0  0  0
  -13.6370   14.7820  -13.7810 C   0  0  0  0  0  0  0  0  0  0  0  0
  -13.1090   15.8190  -14.1880 O   0  0  0  0  0  0  0  0  0  0  0  0
  -13.6260   16.1150  -15.4850 C   0  0  0  0  0  0  0  0  0  0  0  0
  -14.6070   15.0990  -15.6530 O   0  0  0  0  0  0  0  0  0  0  0  0
  -13.5080   16.0980  -10.8240 N   0  0  0  0  0  0  0  0  0  0  0  0
  -13.7050   16.9870   -9.9500 C   0  0  0  0  0  0  0  0  0  0  0  0
  -12.9820   17.2070   -8.9440 N   0  0  0  0  0  0  0  0  0  0  0  0
   -7.3960   15.2690   -3.1290 C   0  0  0  0  0  0  0  0  0  0  0  0
   -8.0760   15.2000   -1.7480 C   0  0  0  0  0  0  0  0  0  0  0  0
   -8.3961   13.8419    0.6661 H   0  0  0  0  0  0  0  0  0  0  0  0
   -9.8359   14.6304   -0.0633 H   0  0  0  0  0  0  0  0  0  0  0  0
   -9.6961   12.8396   -0.0633 H   0  0  0  0  0  0  0  0  0  0  0  0
   -9.5444   12.2603   -2.2584 H   0  0  0  0  0  0  0  0  0  0  0  0
  -10.2424   13.9182   -2.4890 H   0  0  0  0  0  0  0  0  0  0  0  0
   -7.7683   12.7741   -3.8672 H   0  0  0  0  0  0  0  0  0  0  0  0
   -9.4012   13.0875   -4.6034 H   0  0  0  0  0  0  0  0  0  0  0  0
   -6.5100   14.8582   -5.2927 H   0  0  0  0  0  0  0  0  0  0  0  0
   -7.8991   13.8429   -5.9705 H   0  0  0  0  0  0  0  0  0  0  0  0
   -7.3623   16.7848   -6.2442 H   0  0  0  0  0  0  0  0  0  0  0  0
   -7.8179   15.5293   -7.4782 H   0  0  0  0  0  0  0  0  0  0  0  0
  -11.5218   17.5359   -7.0471 H   0  0  0  0  0  0  0  0  0  0  0  0
   -9.1089   12.2158   -9.2957 H   0  0  0  0  0  0  0  0  0  0  0  0
  -10.9648   12.3940   -7.8963 H   0  0  0  0  0  0  0  0  0  0  0  0
  -12.1212   12.3297   -9.2856 H   0  0  0  0  0  0  0  0  0  0  0  0
  -10.3179   10.0673   -8.3088 H   0  0  0  0  0  0  0  0  0  0  0  0
  -12.1103   10.1906   -8.1220 H   0  0  0  0  0  0  0  0  0  0  0  0
   -9.4014    9.6968  -10.2882 H   0  0  0  0  0  0  0  0  0  0  0  0
  -10.4116    9.4900  -11.7614 H   0  0  0  0  0  0  0  0  0  0  0  0
   -9.2396   11.6867  -11.7305 H   0  0  0  0  0  0  0  0  0  0  0  0
  -11.0419   11.8617  -11.6868 H   0  0  0  0  0  0  0  0  0  0  0  0
   -8.9160   14.4429   -8.1282 H   0  0  0  0  0  0  0  0  0  0  0  0
  -11.8928   16.0109  -11.3371 H   0  0  0  0  0  0  0  0  0  0  0  0
  -11.6260   14.0090  -11.8860 H   0  0  0  0  0  0  0  0  0  0  0  0
  -15.6062   11.6589  -13.1205 H   0  0  0  0  0  0  0  0  0  0  0  0
  -15.9983   12.9008  -15.1923 H   0  0  0  0  0  0  0  0  0  0  0  0
  -14.0793   17.1168  -15.5152 H   0  0  0  0  0  0  0  0  0  0  0  0
  -12.8605   16.1264  -16.2749 H   0  0  0  0  0  0  0  0  0  0  0  0
  -14.5895   17.6280  -10.0796 H   0  0  0  0  0  0  0  0  0  0  0  0
  -13.1940   17.9200   -8.2980 H   0  0  0  0  0  0  0  0  0  0  0  0
   -6.4835   14.6551   -3.1072 H   0  0  0  0  0  0  0  0  0  0  0  0
   -7.1603   16.3224   -3.3407 H   0  0  0  0  0  0  0  0  0  0  0  0
   -7.3759   15.5671   -0.9830 H   0  0  0  0  0  0  0  0  0  0  0  0
   -8.9818   15.8237   -1.7706 H   0  0  0  0  0  0  0  0  0  0  0  0
  1  2  1  0
  2  3  1  0
  3  4  1  0
  4  5  1  0
  5  6  1  0
  6  7  1  0
  7  8  1  0
  8  9  1  0
  9 10  2  0
 10 11  1  0
 11 12  2  0
 12 13  1  0
 13 14  1  0
 14 15  1  0
 15 16  1  0
 16 17  1  0
 17 18  1  0
 18 19  1  0
 19 20  1  0
 13 21  2  0
 12 22  1  0
 22 23  1  0
 23 24  1  0
 24 25  2  0
 25 26  1  0
 25 27  1  0
 27 28  2  0
 28 29  1  0
 29 30  2  0
 30 31  1  0
 31 32  1  0
 32 33  1  0
 22 34  1  0
 34 35  2  0
 35 36  1  0
  5 37  1  0
 37 38  1  0
 38  2  1  0
 21  9  1  0
 30 24  1  0
 36 11  1  0
 20 15  1  0
 33 29  1  0
  1 39  1  0
  1 40  1  0
  1 41  1  0
  3 42  1  0
  3 43  1  0
  4 44  1  0
  4 45  1  0
  6 46  1  0
  6 47  1  0
  7 48  1  0
  7 49  1  0
 10 50  1  0
 15 51  1  0
 16 52  1  0
 16 53  1  0
 17 54  1  0
 17 55  1  0
 19 56  1  0
 19 57  1  0
 20 58  1  0
 20 59  1  0
 21 60  1  0
 22 61  1  0
 23 62  1  0
 27 63  1  0
 28 64  1  0
 32 65  1  0
 32 66  1  0
 35 67  1  0
 36 68  1  0
 37 69  1  0
 37 70  1  0
 38 71  1  0
 38 72  1  0
M  END
>  <meeko>  (1)
{"is_sidechain": false}

>  <source_group>  (1)
FYN canonical

>  <source_system>  (1)
FYN_saracatinib

>  <source_run>  (1)
vina_seed6619_ex64

>  <source_seed>  (1)
6619

>  <vina_pose_rank>  (1)
1

>  <vina_affinity_kcal_mol>  (1)
-9.1859999999999999

>  <vina_rmsd_to_crystal_angstrom>  (1)
1.8964000000000001

$$$$
FYN_saracatinib__vina_seed6619_ex64__pose02
     RDKit          3D

 72 77  0  0  0  0  0  0  0  0999 V2000
   -9.2740   13.7670   -0.0310 C   0  0  0  0  0  0  0  0  0  0  0  0
   -8.5320   13.8230   -1.2780 N   0  0  0  0  0  0  0  0  0  0  0  0
   -9.3680   13.3790   -2.3800 C   0  0  0  0  0  0  0  0  0  0  0  0
   -8.6380   13.4840   -3.7270 C   0  0  0  0  0  0  0  0  0  0  0  0
   -8.1570   14.8360   -3.9940 N   0  0  0  0  0  0  0  0  0  0  0  0
   -7.4190   14.8380   -5.2530 C   0  0  0  0  0  0  0  0  0  0  0  0
   -7.8950   15.8370   -6.3210 C   0  0  0  0  0  0  0  0  0  0  0  0
   -9.2660   16.1360   -6.2040 O   0  0  0  0  0  0  0  0  0  0  0  0
  -10.0230   15.9200   -7.3290 C   0  0  0  0  0  0  0  0  0  0  0  0
  -11.1320   16.6190   -7.5980 C   0  0  0  0  0  0  0  0  0  0  0  0
  -11.8590   16.3830   -8.7000 C   0  0  0  0  0  0  0  0  0  0  0  0
  -11.5260   15.4240   -9.6080 C   0  0  0  0  0  0  0  0  0  0  0  0
  -10.4040   14.6960   -9.3520 C   0  0  0  0  0  0  0  0  0  0  0  0
   -9.9630   13.7110  -10.2160 O   0  0  0  0  0  0  0  0  0  0  0  0
   -9.8360   12.3620   -9.8350 C   0  0  0  0  0  0  0  0  0  0  0  0
  -10.8990   11.9080   -8.8330 C   0  0  0  0  0  0  0  0  0  0  0  0
  -10.9470   10.3870   -8.7340 C   0  0  0  0  0  0  0  0  0  0  0  0
  -11.1740    9.8090   -9.9960 O   0  0  0  0  0  0  0  0  0  0  0  0
  -10.0860   10.0550  -10.8460 C   0  0  0  0  0  0  0  0  0  0  0  0
   -9.9830   11.5500  -11.1330 C   0  0  0  0  0  0  0  0  0  0  0  0
   -9.7000   14.9750   -8.2310 C   0  0  0  0  0  0  0  0  0  0  0  0
  -12.3520   15.2940  -10.6860 C   0  0  0  0  0  0  0  0  0  0  0  0
  -12.3650   14.5210  -11.7080 N   0  0  0  0  0  0  0  0  0  0  0  0
  -13.2220   13.8370  -12.3690 C   0  0  0  0  0  0  0  0  0  0  0  0
  -13.6690   14.2880  -13.5760 C   0  0  0  0  0  0  0  0  0  0  0  0
  -13.1420   15.7740  -14.3140 Cl  0  0  0  0  0  0  0  0  0  0  0  0
  -14.5600   13.5840  -14.3010 C   0  0  0  0  0  0  0  0  0  0  0  0
  -15.0540   12.4170  -13.8670 C   0  0  0  0  0  0  0  0  0  0  0  0
  -14.6290   11.9670  -12.6840 C   0  0  0  0  0  0  0  0  0  0  0  0
  -13.7420   12.6580  -11.9570 C   0  0  0  0  0  0  0  0  0  0  0  0
  -13.5010   12.0510  -10.9110 O   0  0  0  0  0  0  0  0  0  0  0  0
  -14.3210   10.8840  -10.8620 C   0  0  0  0  0  0  0  0  0  0  0  0
  -14.9720   10.9250  -12.1260 O   0  0  0  0  0  0  0  0  0  0  0  0
  -13.3650   16.0690  -10.7530 N   0  0  0  0  0  0  0  0  0  0  0  0
  -13.5860   16.9250   -9.8530 C   0  0  0  0  0  0  0  0  0  0  0  0
  -12.8820   17.1200   -8.8280 N   0  0  0  0  0  0  0  0  0  0  0  0
   -7.3150   15.2470   -2.8800 C   0  0  0  0  0  0  0  0  0  0  0  0
   -8.0640   15.1720   -1.5360 C   0  0  0  0  0  0  0  0  0  0  0  0
   -8.5733   13.8199    0.8153 H   0  0  0  0  0  0  0  0  0  0  0  0
   -9.9730   14.6149    0.0182 H   0  0  0  0  0  0  0  0  0  0  0  0
   -9.8378   12.8238    0.0182 H   0  0  0  0  0  0  0  0  0  0  0  0
   -9.6535   12.3303   -2.2104 H   0  0  0  0  0  0  0  0  0  0  0  0
  -10.2549   14.0284   -2.4199 H   0  0  0  0  0  0  0  0  0  0  0  0
   -7.7779   12.7983   -3.7173 H   0  0  0  0  0  0  0  0  0  0  0  0
   -9.3544   13.2199   -4.5188 H   0  0  0  0  0  0  0  0  0  0  0  0
   -6.3677   15.0673   -5.0247 H   0  0  0  0  0  0  0  0  0  0  0  0
   -7.5824   13.8419   -5.6900 H   0  0  0  0  0  0  0  0  0  0  0  0
   -7.3200   16.7687   -6.2143 H   0  0  0  0  0  0  0  0  0  0  0  0
   -7.7356   15.3752   -7.3066 H   0  0  0  0  0  0  0  0  0  0  0  0
  -11.4546   17.4050   -6.8994 H   0  0  0  0  0  0  0  0  0  0  0  0
   -8.8695   12.2153   -9.3307 H   0  0  0  0  0  0  0  0  0  0  0  0
  -10.6610   12.3250   -7.8433 H   0  0  0  0  0  0  0  0  0  0  0  0
  -11.8800   12.2665   -9.1782 H   0  0  0  0  0  0  0  0  0  0  0  0
   -9.9882   10.0214   -8.3376 H   0  0  0  0  0  0  0  0  0  0  0  0
  -11.7725   10.1042   -8.0642 H   0  0  0  0  0  0  0  0  0  0  0  0
   -9.1597    9.7112  -10.3626 H   0  0  0  0  0  0  0  0  0  0  0  0
  -10.2335    9.5127  -11.7916 H   0  0  0  0  0  0  0  0  0  0  0  0
   -9.1053   11.7324  -11.7705 H   0  0  0  0  0  0  0  0  0  0  0  0
  -10.9061   11.8698  -11.6386 H   0  0  0  0  0  0  0  0  0  0  0  0
   -8.7924   14.3830   -8.0420 H   0  0  0  0  0  0  0  0  0  0  0  0
  -11.7401   16.0193  -11.2423 H   0  0  0  0  0  0  0  0  0  0  0  0
  -11.4070   14.4080  -12.1330 H   0  0  0  0  0  0  0  0  0  0  0  0
  -14.8901   13.9774  -15.2738 H   0  0  0  0  0  0  0  0  0  0  0  0
  -15.7835   11.8498  -14.4637 H   0  0  0  0  0  0  0  0  0  0  0  0
  -13.7136    9.9732  -10.7549 H   0  0  0  0  0  0  0  0  0  0  0  0
  -15.0135   10.8648  -10.0075 H   0  0  0  0  0  0  0  0  0  0  0  0
  -14.4762   17.5596   -9.9753 H   0  0  0  0  0  0  0  0  0  0  0  0
  -13.1140   17.8090   -8.1630 H   0  0  0  0  0  0  0  0  0  0  0  0
   -6.4368   14.5861   -2.8352 H   0  0  0  0  0  0  0  0  0  0  0  0
   -7.0162   16.2925   -3.0460 H   0  0  0  0  0  0  0  0  0  0  0  0
   -7.3840   15.4780   -0.7273 H   0  0  0  0  0  0  0  0  0  0  0  0
   -8.9344   15.8431   -1.5811 H   0  0  0  0  0  0  0  0  0  0  0  0
  1  2  1  0
  2  3  1  0
  3  4  1  0
  4  5  1  0
  5  6  1  0
  6  7  1  0
  7  8  1  0
  8  9  1  0
  9 10  2  0
 10 11  1  0
 11 12  2  0
 12 13  1  0
 13 14  1  0
 14 15  1  0
 15 16  1  0
 16 17  1  0
 17 18  1  0
 18 19  1  0
 19 20  1  0
 13 21  2  0
 12 22  1  0
 22 23  1  0
 23 24  1  0
 24 25  2  0
 25 26  1  0
 25 27  1  0
 27 28  2  0
 28 29  1  0
 29 30  2  0
 30 31  1  0
 31 32  1  0
 32 33  1  0
 22 34  1  0
 34 35  2  0
 35 36  1  0
  5 37  1  0
 37 38  1  0
 38  2  1  0
 21  9  1  0
 30 24  1  0
 36 11  1  0
 20 15  1  0
 33 29  1  0
  1 39  1  0
  1 40  1  0
  1 41  1  0
  3 42  1  0
  3 43  1  0
  4 44  1  0
  4 45  1  0
  6 46  1  0
  6 47  1  0
  7 48  1  0
  7 49  1  0
 10 50  1  0
 15 51  1  0
 16 52  1  0
 16 53  1  0
 17 54  1  0
 17 55  1  0
 19 56  1  0
 19 57  1  0
 20 58  1  0
 20 59  1  0
 21 60  1  0
 22 61  1  0
 23 62  1  0
 27 63  1  0
 28 64  1  0
 32 65  1  0
 32 66  1  0
 35 67  1  0
 36 68  1  0
 37 69  1  0
 37 70  1  0
 38 71  1  0
 38 72  1  0
M  END
>  <meeko>  (2)
{"is_sidechain": false}

>  <source_group>  (2)
FYN canonical

>  <source_system>  (2)
FYN_saracatinib

>  <source_run>  (2)
vina_seed6619_ex64

>  <source_seed>  (2)
6619

>  <vina_pose_rank>  (2)
2

>  <vina_affinity_kcal_mol>  (2)
-9.0730000000000004

>  <vina_rmsd_to_crystal_angstrom>  (2)
2.7946

$$$$
FYN_saracatinib__vina_seed6619_ex64__pose03
     RDKit          3D

 72 77  0  0  0  0  0  0  0  0999 V2000
   -7.1570    9.5120   -7.6410 C   0  0  0  0  0  0  0  0  0  0  0  0
   -7.4020   10.9180   -7.3690 N   0  0  0  0  0  0  0  0  0  0  0  0
   -8.7070   11.0890   -6.7550 C   0  0  0  0  0  0  0  0  0  0  0  0
   -8.9770   12.5570   -6.3930 C   0  0  0  0  0  0  0  0  0  0  0  0
   -7.9500   13.1120   -5.5170 N   0  0  0  0  0  0  0  0  0  0  0  0
   -8.2410   14.5210   -5.2760 C   0  0  0  0  0  0  0  0  0  0  0  0
   -8.4020   15.4060   -6.5230 C   0  0  0  0  0  0  0  0  0  0  0  0
   -9.6440   16.0680   -6.5560 O   0  0  0  0  0  0  0  0  0  0  0  0
  -10.4010   15.8660   -7.6840 C   0  0  0  0  0  0  0  0  0  0  0  0
  -11.4860   16.5950   -7.9660 C   0  0  0  0  0  0  0  0  0  0  0  0
  -12.2130   16.3720   -9.0710 C   0  0  0  0  0  0  0  0  0  0  0  0
  -11.9040   15.3950   -9.9680 C   0  0  0  0  0  0  0  0  0  0  0  0
  -10.8070   14.6350   -9.6980 C   0  0  0  0  0  0  0  0  0  0  0  0
  -10.3910   13.6280  -10.5500 O   0  0  0  0  0  0  0  0  0  0  0  0
  -10.2990   12.2810  -10.1530 C   0  0  0  0  0  0  0  0  0  0  0  0
  -11.4230   11.8440   -9.2130 C   0  0  0  0  0  0  0  0  0  0  0  0
  -11.4910   10.3240   -9.1060 C   0  0  0  0  0  0  0  0  0  0  0  0
  -11.6470    9.7390  -10.3760 O   0  0  0  0  0  0  0  0  0  0  0  0
  -10.5090    9.9690  -11.1620 C   0  0  0  0  0  0  0  0  0  0  0  0
  -10.3750   11.4610  -11.4510 C   0  0  0  0  0  0  0  0  0  0  0  0
  -10.1020   14.9020   -8.5750 C   0  0  0  0  0  0  0  0  0  0  0  0
  -12.7270   15.2800  -11.0510 C   0  0  0  0  0  0  0  0  0  0  0  0
  -12.7580   14.4980  -12.0660 N   0  0  0  0  0  0  0  0  0  0  0  0
  -13.6080   14.1160  -12.9430 C   0  0  0  0  0  0  0  0  0  0  0  0
  -14.3440   12.9880  -12.7310 C   0  0  0  0  0  0  0  0  0  0  0  0
  -14.2140   11.9950  -11.3070 Cl  0  0  0  0  0  0  0  0  0  0  0  0
  -15.2570   12.5670  -13.6280 C   0  0  0  0  0  0  0  0  0  0  0  0
  -15.4760   13.2310  -14.7720 C   0  0  0  0  0  0  0  0  0  0  0  0
  -14.7570   14.3350  -14.9940 C   0  0  0  0  0  0  0  0  0  0  0  0
  -13.8490   14.7610  -14.1070 C   0  0  0  0  0  0  0  0  0  0  0  0
  -13.3140   15.7910  -14.5240 O   0  0  0  0  0  0  0  0  0  0  0  0
  -13.8290   16.0770  -15.8230 C   0  0  0  0  0  0  0  0  0  0  0  0
  -14.8170   15.0660  -15.9820 O   0  0  0  0  0  0  0  0  0  0  0  0
  -13.7140   16.0850  -11.1300 N   0  0  0  0  0  0  0  0  0  0  0  0
  -13.9150   16.9560  -10.2400 C   0  0  0  0  0  0  0  0  0  0  0  0
  -13.2120   17.1390   -9.2130 N   0  0  0  0  0  0  0  0  0  0  0  0
   -6.6580   12.9350   -6.1630 C   0  0  0  0  0  0  0  0  0  0  0  0
   -6.3780   11.4560   -6.4920 C   0  0  0  0  0  0  0  0  0  0  0  0
   -7.0618    8.9659   -6.6909 H   0  0  0  0  0  0  0  0  0  0  0  0
   -7.9966    9.0986   -8.2190 H   0  0  0  0  0  0  0  0  0  0  0  0
   -6.2270    9.4070   -8.2190 H   0  0  0  0  0  0  0  0  0  0  0  0
   -9.4798   10.7477   -7.4595 H   0  0  0  0  0  0  0  0  0  0  0  0
   -8.7296   10.4976   -5.8278 H   0  0  0  0  0  0  0  0  0  0  0  0
   -9.0088   13.1492   -7.3194 H   0  0  0  0  0  0  0  0  0  0  0  0
   -9.9354   12.5989   -5.8547 H   0  0  0  0  0  0  0  0  0  0  0  0
   -9.1780   14.5764   -4.7024 H   0  0  0  0  0  0  0  0  0  0  0  0
   -7.3610   14.9161   -4.7474 H   0  0  0  0  0  0  0  0  0  0  0  0
   -7.6003   16.1592   -6.5273 H   0  0  0  0  0  0  0  0  0  0  0  0
   -8.3471   14.7529   -7.4064 H   0  0  0  0  0  0  0  0  0  0  0  0
  -11.7893   17.3961   -7.2759 H   0  0  0  0  0  0  0  0  0  0  0  0
   -9.3656   12.1295   -9.5910 H   0  0  0  0  0  0  0  0  0  0  0  0
  -11.2402   12.2665   -8.2139 H   0  0  0  0  0  0  0  0  0  0  0  0
  -12.3784   12.2083   -9.6185 H   0  0  0  0  0  0  0  0  0  0  0  0
  -10.5613    9.9529   -8.6500 H   0  0  0  0  0  0  0  0  0  0  0  0
  -12.3575   10.0533   -8.4849 H   0  0  0  0  0  0  0  0  0  0  0  0
   -9.6160    9.6195  -10.6231 H   0  0  0  0  0  0  0  0  0  0  0  0
  -10.6060    9.4219  -12.1114 H   0  0  0  0  0  0  0  0  0  0  0  0
   -9.4588   11.6311  -12.0355 H   0  0  0  0  0  0  0  0  0  0  0  0
  -11.2634   11.7852  -12.0128 H   0  0  0  0  0  0  0  0  0  0  0  0
   -9.2151   14.2832   -8.3740 H   0  0  0  0  0  0  0  0  0  0  0  0
  -12.0891   15.9804  -11.6101 H   0  0  0  0  0  0  0  0  0  0  0  0
  -11.8270   14.0330  -12.2360 H   0  0  0  0  0  0  0  0  0  0  0  0
  -15.8368   11.6564  -13.4166 H   0  0  0  0  0  0  0  0  0  0  0  0
  -16.2207   12.8796  -15.5014 H   0  0  0  0  0  0  0  0  0  0  0  0
  -14.2757   17.0814  -15.8630 H   0  0  0  0  0  0  0  0  0  0  0  0
  -13.0632   16.0751  -16.6126 H   0  0  0  0  0  0  0  0  0  0  0  0
  -14.7847   17.6160  -10.3742 H   0  0  0  0  0  0  0  0  0  0  0  0
  -13.4260   17.8410   -8.5550 H   0  0  0  0  0  0  0  0  0  0  0  0
   -6.6449   13.5158   -7.0971 H   0  0  0  0  0  0  0  0  0  0  0  0
   -5.8791   13.2832   -5.4687 H   0  0  0  0  0  0  0  0  0  0  0  0
   -5.3999   11.3765   -6.9890 H   0  0  0  0  0  0  0  0  0  0  0  0
   -6.3803   10.8807   -5.5544 H   0  0  0  0  0  0  0  0  0  0  0  0
  1  2  1  0
  2  3  1  0
  3  4  1  0
  4  5  1  0
  5  6  1  0
  6  7  1  0
  7  8  1  0
  8  9  1  0
  9 10  2  0
 10 11  1  0
 11 12  2  0
 12 13  1  0
 13 14  1  0
 14 15  1  0
 15 16  1  0
 16 17  1  0
 17 18  1  0
 18 19  1  0
 19 20  1  0
 13 21  2  0
 12 22  1  0
 22 23  1  0
 23 24  1  0
 24 25  2  0
 25 26  1  0
 25 27  1  0
 27 28  2  0
 28 29  1  0
 29 30  2  0
 30 31  1  0
 31 32  1  0
 32 33  1  0
 22 34  1  0
 34 35  2  0
 35 36  1  0
  5 37  1  0
 37 38  1  0
 38  2  1  0
 21  9  1  0
 30 24  1  0
 36 11  1  0
 20 15  1  0
 33 29  1  0
  1 39  1  0
  1 40  1  0
  1 41  1  0
  3 42  1  0
  3 43  1  0
  4 44  1  0
  4 45  1  0
  6 46  1  0
  6 47  1  0
  7 48  1  0
  7 49  1  0
 10 50  1  0
 15 51  1  0
 16 52  1  0
 16 53  1  0
 17 54  1  0
 17 55  1  0
 19 56  1  0
 19 57  1  0
 20 58  1  0
 20 59  1  0
 21 60  1  0
 22 61  1  0
 23 62  1  0
 27 63  1  0
 28 64  1  0
 32 65  1  0
 32 66  1  0
 35 67  1  0
 36 68  1  0
 37 69  1  0
 37 70  1  0
 38 71  1  0
 38 72  1  0
M  END
>  <meeko>  (3)
{"is_sidechain": false}

>  <source_group>  (3)
FYN canonical

>  <source_system>  (3)
FYN_saracatinib

>  <source_run>  (3)
vina_seed6619_ex64

>  <source_seed>  (3)
6619

>  <vina_pose_rank>  (3)
3

>  <vina_affinity_kcal_mol>  (3)
-8.9000000000000004

>  <vina_rmsd_to_crystal_angstrom>  (3)
3.1404999999999998

$$$$
FYN_saracatinib__vina_seed6619_ex64__pose04
     RDKit          3D

 72 77  0  0  0  0  0  0  0  0999 V2000
   -8.2900   18.6010   -4.4050 C   0  0  0  0  0  0  0  0  0  0  0  0
   -7.8270   17.2560   -4.7020 N   0  0  0  0  0  0  0  0  0  0  0  0
   -8.5140   16.2920   -3.8620 C   0  0  0  0  0  0  0  0  0  0  0  0
   -8.0980   14.8510   -4.1910 C   0  0  0  0  0  0  0  0  0  0  0  0
   -8.3150   14.5160   -5.5950 N   0  0  0  0  0  0  0  0  0  0  0  0
   -7.8340   13.1610   -5.8410 C   0  0  0  0  0  0  0  0  0  0  0  0
   -8.8010   12.2170   -6.5730 C   0  0  0  0  0  0  0  0  0  0  0  0
  -10.1360   12.6590   -6.5090 O   0  0  0  0  0  0  0  0  0  0  0  0
  -10.6830   13.0830   -7.6950 C   0  0  0  0  0  0  0  0  0  0  0  0
  -11.1340   14.3300   -7.8780 C   0  0  0  0  0  0  0  0  0  0  0  0
  -11.6720   14.7170   -9.0440 C   0  0  0  0  0  0  0  0  0  0  0  0
  -11.8000   13.8760  -10.1080 C   0  0  0  0  0  0  0  0  0  0  0  0
  -11.3540   12.6000   -9.9430 C   0  0  0  0  0  0  0  0  0  0  0  0
  -11.4180   11.6690  -10.9630 O   0  0  0  0  0  0  0  0  0  0  0  0
  -10.8510   10.3860  -10.8630 C   0  0  0  0  0  0  0  0  0  0  0  0
  -11.8800    9.2570  -10.9270 C   0  0  0  0  0  0  0  0  0  0  0  0
  -11.2080    7.9120  -11.1790 C   0  0  0  0  0  0  0  0  0  0  0  0
  -10.4370    7.9500  -12.3560 O   0  0  0  0  0  0  0  0  0  0  0  0
   -9.3630    8.8400  -12.2060 C   0  0  0  0  0  0  0  0  0  0  0  0
   -9.8890   10.2630  -12.0570 C   0  0  0  0  0  0  0  0  0  0  0  0
  -10.8130   12.2590   -8.7510 C   0  0  0  0  0  0  0  0  0  0  0  0
  -12.3610   14.4030  -11.2350 C   0  0  0  0  0  0  0  0  0  0  0  0
  -12.6440   13.9290  -12.3920 N   0  0  0  0  0  0  0  0  0  0  0  0
  -13.6640   13.8550  -13.1630 C   0  0  0  0  0  0  0  0  0  0  0  0
  -14.6150   12.9040  -12.9440 C   0  0  0  0  0  0  0  0  0  0  0  0
  -14.5500   11.7430  -11.6490 Cl  0  0  0  0  0  0  0  0  0  0  0  0
  -15.7070   12.8100  -13.7290 C   0  0  0  0  0  0  0  0  0  0  0  0
  -15.9010   13.6380  -14.7650 C   0  0  0  0  0  0  0  0  0  0  0  0
  -14.9720   14.5710  -14.9940 C   0  0  0  0  0  0  0  0  0  0  0  0
  -13.8860   14.6730  -14.2170 C   0  0  0  0  0  0  0  0  0  0  0  0
  -13.1770   15.5990  -14.6180 O   0  0  0  0  0  0  0  0  0  0  0  0
  -13.7660   16.1480  -15.7960 C   0  0  0  0  0  0  0  0  0  0  0  0
  -14.9790   15.4100  -15.8930 O   0  0  0  0  0  0  0  0  0  0  0  0
  -12.7250   15.6260  -11.1990 N   0  0  0  0  0  0  0  0  0  0  0  0
  -12.5630   16.3200  -10.1580 C   0  0  0  0  0  0  0  0  0  0  0  0
  -12.0540   15.9250   -9.0770 N   0  0  0  0  0  0  0  0  0  0  0  0
   -7.6060   15.4920   -6.4100 C   0  0  0  0  0  0  0  0  0  0  0  0
   -8.0540   16.9330   -6.0990 C   0  0  0  0  0  0  0  0  0  0  0  0
   -8.3378   18.7400   -3.3149 H   0  0  0  0  0  0  0  0  0  0  0  0
   -7.5921   19.3329   -4.8377 H   0  0  0  0  0  0  0  0  0  0  0  0
   -9.2906   18.7483   -4.8377 H   0  0  0  0  0  0  0  0  0  0  0  0
   -8.2725   16.5009   -2.8094 H   0  0  0  0  0  0  0  0  0  0  0  0
   -9.5944   16.3866   -4.0458 H   0  0  0  0  0  0  0  0  0  0  0  0
   -7.0293   14.7304   -3.9601 H   0  0  0  0  0  0  0  0  0  0  0  0
   -8.7200   14.1757   -3.5851 H   0  0  0  0  0  0  0  0  0  0  0  0
   -6.9173   13.2353   -6.4444 H   0  0  0  0  0  0  0  0  0  0  0  0
   -7.6880   12.7166   -4.8454 H   0  0  0  0  0  0  0  0  0  0  0  0
   -8.5005   12.1535   -7.6292 H   0  0  0  0  0  0  0  0  0  0  0  0
   -8.7492   11.2357   -6.0787 H   0  0  0  0  0  0  0  0  0  0  0  0
  -11.0617   15.0540   -7.0530 H   0  0  0  0  0  0  0  0  0  0  0  0
  -10.3558   10.2828   -9.8862 H   0  0  0  0  0  0  0  0  0  0  0  0
  -12.4241    9.2129   -9.9720 H   0  0  0  0  0  0  0  0  0  0  0  0
  -12.5709    9.4622  -11.7580 H   0  0  0  0  0  0  0  0  0  0  0  0
  -10.5545    7.6705  -10.3277 H   0  0  0  0  0  0  0  0  0  0  0  0
  -11.9879    7.1447  -11.2936 H   0  0  0  0  0  0  0  0  0  0  0  0
   -8.7859    8.5682  -11.3099 H   0  0  0  0  0  0  0  0  0  0  0  0
   -8.7168    8.7826  -13.0943 H   0  0  0  0  0  0  0  0  0  0  0  0
   -9.0390   10.9440  -11.9029 H   0  0  0  0  0  0  0  0  0  0  0  0
  -10.4397   10.5252  -12.9725 H   0  0  0  0  0  0  0  0  0  0  0  0
  -10.4508   11.2268   -8.6358 H   0  0  0  0  0  0  0  0  0  0  0  0
  -11.3630   14.6910  -11.5971 H   0  0  0  0  0  0  0  0  0  0  0  0
  -11.8120   13.4700  -12.8470 H   0  0  0  0  0  0  0  0  0  0  0  0
  -16.4572   12.0348  -13.5140 H   0  0  0  0  0  0  0  0  0  0  0  0
  -16.7926   13.5527  -15.4036 H   0  0  0  0  0  0  0  0  0  0  0  0
  -13.9614   17.2243  -15.6806 H   0  0  0  0  0  0  0  0  0  0  0  0
  -13.1274   16.0702  -16.6883 H   0  0  0  0  0  0  0  0  0  0  0  0
  -12.8976   17.3671  -10.1990 H   0  0  0  0  0  0  0  0  0  0  0  0
  -11.9580   16.5210   -8.3000 H   0  0  0  0  0  0  0  0  0  0  0  0
   -6.5275   15.4043   -6.2123 H   0  0  0  0  0  0  0  0  0  0  0  0
   -7.8334   15.2844   -7.4660 H   0  0  0  0  0  0  0  0  0  0  0  0
   -7.4822   17.6315   -6.7276 H   0  0  0  0  0  0  0  0  0  0  0  0
   -9.1302   17.0196   -6.3093 H   0  0  0  0  0  0  0  0  0  0  0  0
  1  2  1  0
  2  3  1  0
  3  4  1  0
  4  5  1  0
  5  6  1  0
  6  7  1  0
  7  8  1  0
  8  9  1  0
  9 10  2  0
 10 11  1  0
 11 12  2  0
 12 13  1  0
 13 14  1  0
 14 15  1  0
 15 16  1  0
 16 17  1  0
 17 18  1  0
 18 19  1  0
 19 20  1  0
 13 21  2  0
 12 22  1  0
 22 23  1  0
 23 24  1  0
 24 25  2  0
 25 26  1  0
 25 27  1  0
 27 28  2  0
 28 29  1  0
 29 30  2  0
 30 31  1  0
 31 32  1  0
 32 33  1  0
 22 34  1  0
 34 35  2  0
 35 36  1  0
  5 37  1  0
 37 38  1  0
 38  2  1  0
 21  9  1  0
 30 24  1  0
 36 11  1  0
 20 15  1  0
 33 29  1  0
  1 39  1  0
  1 40  1  0
  1 41  1  0
  3 42  1  0
  3 43  1  0
  4 44  1  0
  4 45  1  0
  6 46  1  0
  6 47  1  0
  7 48  1  0
  7 49  1  0
 10 50  1  0
 15 51  1  0
 16 52  1  0
 16 53  1  0
 17 54  1  0
 17 55  1  0
 19 56  1  0
 19 57  1  0
 20 58  1  0
 20 59  1  0
 21 60  1  0
 22 61  1  0
 23 62  1  0
 27 63  1  0
 28 64  1  0
 32 65  1  0
 32 66  1  0
 35 67  1  0
 36 68  1  0
 37 69  1  0
 37 70  1  0
 38 71  1  0
 38 72  1  0
M  END
>  <meeko>  (4)
{"is_sidechain": false}

>  <source_group>  (4)
FYN canonical

>  <source_system>  (4)
FYN_saracatinib

>  <source_run>  (4)
vina_seed6619_ex64

>  <source_seed>  (4)
6619

>  <vina_pose_rank>  (4)
4

>  <vina_affinity_kcal_mol>  (4)
-8.8800000000000008

>  <vina_rmsd_to_crystal_angstrom>  (4)
2.7902

$$$$
FYN_saracatinib__vina_seed6619_ex64__pose05
     RDKit          3D

 72 77  0  0  0  0  0  0  0  0999 V2000
   -7.4400   21.7420   -3.9490 C   0  0  0  0  0  0  0  0  0  0  0  0
   -7.6770   20.3940   -4.4350 N   0  0  0  0  0  0  0  0  0  0  0  0
   -6.5590   19.9500   -5.2490 C   0  0  0  0  0  0  0  0  0  0  0  0
   -6.7430   18.5040   -5.7290 C   0  0  0  0  0  0  0  0  0  0  0  0
   -6.9400   17.5710   -4.6230 N   0  0  0  0  0  0  0  0  0  0  0  0
   -7.1740   16.2360   -5.1620 C   0  0  0  0  0  0  0  0  0  0  0  0
   -7.9500   16.1640   -6.4880 C   0  0  0  0  0  0  0  0  0  0  0  0
   -9.3440   16.2310   -6.3000 O   0  0  0  0  0  0  0  0  0  0  0  0
  -10.1110   15.9870   -7.4120 C   0  0  0  0  0  0  0  0  0  0  0  0
  -11.2190   16.6830   -7.6930 C   0  0  0  0  0  0  0  0  0  0  0  0
  -11.9550   16.4190   -8.7820 C   0  0  0  0  0  0  0  0  0  0  0  0
  -11.6330   15.4330   -9.6650 C   0  0  0  0  0  0  0  0  0  0  0  0
  -10.5120   14.7070   -9.3970 C   0  0  0  0  0  0  0  0  0  0  0  0
  -10.0820   13.6960  -10.2350 O   0  0  0  0  0  0  0  0  0  0  0  0
   -9.9710   12.3550   -9.8210 C   0  0  0  0  0  0  0  0  0  0  0  0
  -11.0470   11.9350   -8.8200 C   0  0  0  0  0  0  0  0  0  0  0  0
  -11.1090   10.4170   -8.6840 C   0  0  0  0  0  0  0  0  0  0  0  0
  -11.3280    9.8110   -9.9340 O   0  0  0  0  0  0  0  0  0  0  0  0
  -10.2300   10.0270  -10.7790 C   0  0  0  0  0  0  0  0  0  0  0  0
  -10.1110   11.5130  -11.1000 C   0  0  0  0  0  0  0  0  0  0  0  0
   -9.7990   15.0150   -8.2900 C   0  0  0  0  0  0  0  0  0  0  0  0
  -12.4670   15.2760  -10.7330 C   0  0  0  0  0  0  0  0  0  0  0  0
  -12.4920   14.4740  -11.7330 N   0  0  0  0  0  0  0  0  0  0  0  0
  -13.3400   14.0650  -12.6000 C   0  0  0  0  0  0  0  0  0  0  0  0
  -14.0340   12.9120  -12.3820 C   0  0  0  0  0  0  0  0  0  0  0  0
  -13.8520   11.9200  -10.9630 Cl  0  0  0  0  0  0  0  0  0  0  0  0
  -14.9440   12.4630  -13.2690 C   0  0  0  0  0  0  0  0  0  0  0  0
  -15.2000   13.1210  -14.4080 C   0  0  0  0  0  0  0  0  0  0  0  0
  -14.5220   14.2490  -14.6360 C   0  0  0  0  0  0  0  0  0  0  0  0
  -13.6180   14.7040  -13.7590 C   0  0  0  0  0  0  0  0  0  0  0  0
  -13.1240   15.7530  -14.1800 O   0  0  0  0  0  0  0  0  0  0  0  0
  -13.6650   16.0250  -15.4720 C   0  0  0  0  0  0  0  0  0  0  0  0
  -14.6190   14.9800  -15.6200 O   0  0  0  0  0  0  0  0  0  0  0  0
  -13.4770   16.0530  -10.8140 N   0  0  0  0  0  0  0  0  0  0  0  0
  -13.6880   16.9350   -9.9370 C   0  0  0  0  0  0  0  0  0  0  0  0
  -12.9760   17.1570   -8.9240 N   0  0  0  0  0  0  0  0  0  0  0  0
   -8.0720   18.0360   -3.8340 C   0  0  0  0  0  0  0  0  0  0  0  0
   -7.8650   19.4760   -3.3260 C   0  0  0  0  0  0  0  0  0  0  0  0
   -7.4403   21.7405   -2.8490 H   0  0  0  0  0  0  0  0  0  0  0  0
   -6.4655   22.0977   -4.3150 H   0  0  0  0  0  0  0  0  0  0  0  0
   -8.2347   22.4087   -4.3150 H   0  0  0  0  0  0  0  0  0  0  0  0
   -6.4735   20.6083   -6.1261 H   0  0  0  0  0  0  0  0  0  0  0  0
   -5.6488   19.9927   -4.6327 H   0  0  0  0  0  0  0  0  0  0  0  0
   -7.6219   18.4600   -6.3890 H   0  0  0  0  0  0  0  0  0  0  0  0
   -5.8258   18.2072   -6.2587 H   0  0  0  0  0  0  0  0  0  0  0  0
   -6.1942   15.7619   -5.3207 H   0  0  0  0  0  0  0  0  0  0  0  0
   -7.8093   15.7276   -4.4218 H   0  0  0  0  0  0  0  0  0  0  0  0
   -7.6389   17.0050   -7.1252 H   0  0  0  0  0  0  0  0  0  0  0  0
   -7.7216   15.1957   -6.9574 H   0  0  0  0  0  0  0  0  0  0  0  0
  -11.5330   17.4902   -7.0149 H   0  0  0  0  0  0  0  0  0  0  0  0
   -9.0109   12.2120   -9.3036 H   0  0  0  0  0  0  0  0  0  0  0  0
  -10.8155   12.3743   -7.8385 H   0  0  0  0  0  0  0  0  0  0  0  0
  -12.0213   12.2929   -9.1841 H   0  0  0  0  0  0  0  0  0  0  0  0
  -10.1575   10.0532   -8.2689 H   0  0  0  0  0  0  0  0  0  0  0  0
  -11.9433   10.1572   -8.0158 H   0  0  0  0  0  0  0  0  0  0  0  0
   -9.3114    9.6866  -10.2787 H   0  0  0  0  0  0  0  0  0  0  0  0
  -10.3734    9.4636  -11.7128 H   0  0  0  0  0  0  0  0  0  0  0  0
   -9.2250   11.6726  -11.7320 H   0  0  0  0  0  0  0  0  0  0  0  0
  -11.0261   11.8281  -11.6229 H   0  0  0  0  0  0  0  0  0  0  0  0
   -8.8924   14.4247   -8.0911 H   0  0  0  0  0  0  0  0  0  0  0  0
  -11.8555   15.9818  -11.3143 H   0  0  0  0  0  0  0  0  0  0  0  0
  -11.5570   14.0160  -11.8970 H   0  0  0  0  0  0  0  0  0  0  0  0
  -15.4903   11.5331  -13.0526 H   0  0  0  0  0  0  0  0  0  0  0  0
  -15.9414   12.7459  -15.1288 H   0  0  0  0  0  0  0  0  0  0  0  0
  -14.1469   17.0133  -15.5034 H   0  0  0  0  0  0  0  0  0  0  0  0
  -12.9102   16.0526  -16.2717 H   0  0  0  0  0  0  0  0  0  0  0  0
  -14.5771   17.5687  -10.0705 H   0  0  0  0  0  0  0  0  0  0  0  0
  -13.1990   17.8650   -8.2770 H   0  0  0  0  0  0  0  0  0  0  0  0
   -8.9771   18.0057   -4.4584 H   0  0  0  0  0  0  0  0  0  0  0  0
   -8.1718   17.3767   -2.9591 H   0  0  0  0  0  0  0  0  0  0  0  0
   -8.7488   19.7848   -2.7485 H   0  0  0  0  0  0  0  0  0  0  0  0
   -6.9655   19.4999   -2.6933 H   0  0  0  0  0  0  0  0  0  0  0  0
  1  2  1  0
  2  3  1  0
  3  4  1  0
  4  5  1  0
  5  6  1  0
  6  7  1  0
  7  8  1  0
  8  9  1  0
  9 10  2  0
 10 11  1  0
 11 12  2  0
 12 13  1  0
 13 14  1  0
 14 15  1  0
 15 16  1  0
 16 17  1  0
 17 18  1  0
 18 19  1  0
 19 20  1  0
 13 21  2  0
 12 22  1  0
 22 23  1  0
 23 24  1  0
 24 25  2  0
 25 26  1  0
 25 27  1  0
 27 28  2  0
 28 29  1  0
 29 30  2  0
 30 31  1  0
 31 32  1  0
 32 33  1  0
 22 34  1  0
 34 35  2  0
 35 36  1  0
  5 37  1  0
 37 38  1  0
 38  2  1  0
 21  9  1  0
 30 24  1  0
 36 11  1  0
 20 15  1  0
 33 29  1  0
  1 39  1  0
  1 40  1  0
  1 41  1  0
  3 42  1  0
  3 43  1  0
  4 44  1  0
  4 45  1  0
  6 46  1  0
  6 47  1  0
  7 48  1  0
  7 49  1  0
 10 50  1  0
 15 51  1  0
 16 52  1  0
 16 53  1  0
 17 54  1  0
 17 55  1  0
 19 56  1  0
 19 57  1  0
 20 58  1  0
 20 59  1  0
 21 60  1  0
 22 61  1  0
 23 62  1  0
 27 63  1  0
 28 64  1  0
 32 65  1  0
 32 66  1  0
 35 67  1  0
 36 68  1  0
 37 69  1  0
 37 70  1  0
 38 71  1  0
 38 72  1  0
M  END
>  <meeko>  (5)
{"is_sidechain": false}

>  <source_group>  (5)
FYN canonical

>  <source_system>  (5)
FYN_saracatinib

>  <source_run>  (5)
vina_seed6619_ex64

>  <source_seed>  (5)
6619

>  <vina_pose_rank>  (5)
5

>  <vina_affinity_kcal_mol>  (5)
-8.8640000000000008

>  <vina_rmsd_to_crystal_angstrom>  (5)
1.9609000000000001

$$$$
FYN_saracatinib__vina_seed6619_ex64__pose06
     RDKit          3D

 72 77  0  0  0  0  0  0  0  0999 V2000
   -7.2360    9.7230   -7.7430 C   0  0  0  0  0  0  0  0  0  0  0  0
   -7.5400   11.0930   -7.3650 N   0  0  0  0  0  0  0  0  0  0  0  0
   -8.6950   11.1260   -6.4860 C   0  0  0  0  0  0  0  0  0  0  0  0
   -9.0100   12.5520   -6.0120 C   0  0  0  0  0  0  0  0  0  0  0  0
   -7.8730   13.1800   -5.3460 N   0  0  0  0  0  0  0  0  0  0  0  0
   -8.2280   14.5490   -4.9890 C   0  0  0  0  0  0  0  0  0  0  0  0
   -8.1780   15.5850   -6.1250 C   0  0  0  0  0  0  0  0  0  0  0  0
   -9.3770   16.3120   -6.2420 O   0  0  0  0  0  0  0  0  0  0  0  0
  -10.1200   16.0630   -7.3710 C   0  0  0  0  0  0  0  0  0  0  0  0
  -11.2410   16.7340   -7.6600 C   0  0  0  0  0  0  0  0  0  0  0  0
  -11.9520   16.4660   -8.7650 C   0  0  0  0  0  0  0  0  0  0  0  0
  -11.5910   15.5000   -9.6550 C   0  0  0  0  0  0  0  0  0  0  0  0
  -10.4570   14.7990   -9.3770 C   0  0  0  0  0  0  0  0  0  0  0  0
   -9.9880   13.8100  -10.2210 O   0  0  0  0  0  0  0  0  0  0  0  0
   -9.8970   12.4590   -9.8390 C   0  0  0  0  0  0  0  0  0  0  0  0
  -11.1260   11.9560   -9.0810 C   0  0  0  0  0  0  0  0  0  0  0  0
  -11.1440   10.4320   -9.0110 C   0  0  0  0  0  0  0  0  0  0  0  0
  -11.0890    9.8710  -10.3000 O   0  0  0  0  0  0  0  0  0  0  0  0
   -9.8590   10.1650  -10.9070 C   0  0  0  0  0  0  0  0  0  0  0  0
   -9.7490   11.6660  -11.1480 C   0  0  0  0  0  0  0  0  0  0  0  0
   -9.7690   15.1100   -8.2550 C   0  0  0  0  0  0  0  0  0  0  0  0
  -12.4040   15.3360  -10.7380 C   0  0  0  0  0  0  0  0  0  0  0  0
  -12.3920   14.5460  -11.7480 N   0  0  0  0  0  0  0  0  0  0  0  0
  -13.2380   13.8830  -12.4430 C   0  0  0  0  0  0  0  0  0  0  0  0
  -13.6380   14.3540  -13.6580 C   0  0  0  0  0  0  0  0  0  0  0  0
  -13.0650   15.8380  -14.3630 Cl  0  0  0  0  0  0  0  0  0  0  0  0
  -14.5160   13.6710  -14.4200 C   0  0  0  0  0  0  0  0  0  0  0  0
  -15.0420   12.5070  -14.0150 C   0  0  0  0  0  0  0  0  0  0  0  0
  -14.6620   12.0380  -12.8230 C   0  0  0  0  0  0  0  0  0  0  0  0
  -13.7880   12.7080  -12.0610 C   0  0  0  0  0  0  0  0  0  0  0  0
  -13.5910   12.0860  -11.0150 O   0  0  0  0  0  0  0  0  0  0  0  0
  -14.4300   10.9320  -11.0040 C   0  0  0  0  0  0  0  0  0  0  0  0
  -15.0390   10.9960  -12.2890 O   0  0  0  0  0  0  0  0  0  0  0  0
  -13.4320   16.0880  -10.8260 N   0  0  0  0  0  0  0  0  0  0  0  0
  -13.6800   16.9530   -9.9420 C   0  0  0  0  0  0  0  0  0  0  0  0
  -12.9890   17.1790   -8.9140 N   0  0  0  0  0  0  0  0  0  0  0  0
   -6.7370   13.1420   -6.2540 C   0  0  0  0  0  0  0  0  0  0  0  0
   -6.4040   11.7040   -6.6980 C   0  0  0  0  0  0  0  0  0  0  0  0
   -7.1009    9.1140   -6.8370 H   0  0  0  0  0  0  0  0  0  0  0  0
   -8.0653    9.3145   -8.3391 H   0  0  0  0  0  0  0  0  0  0  0  0
   -6.3117    9.7036   -8.3391 H   0  0  0  0  0  0  0  0  0  0  0  0
   -9.5665   10.7303   -7.0281 H   0  0  0  0  0  0  0  0  0  0  0  0
   -8.4687   10.5135   -5.6008 H   0  0  0  0  0  0  0  0  0  0  0  0
   -9.2890   13.1609   -6.8846 H   0  0  0  0  0  0  0  0  0  0  0  0
   -9.8329   12.4900   -5.2846 H   0  0  0  0  0  0  0  0  0  0  0  0
   -9.2538   14.5364   -4.5920 H   0  0  0  0  0  0  0  0  0  0  0  0
   -7.4644   14.8705   -4.2654 H   0  0  0  0  0  0  0  0  0  0  0  0
   -7.3564   16.2887   -5.9253 H   0  0  0  0  0  0  0  0  0  0  0  0
   -8.0227   15.0408   -7.0682 H   0  0  0  0  0  0  0  0  0  0  0  0
  -11.5870   17.5229   -6.9760 H   0  0  0  0  0  0  0  0  0  0  0  0
   -9.0488   12.3321   -9.1502 H   0  0  0  0  0  0  0  0  0  0  0  0
  -11.1085   12.3622   -8.0589 H   0  0  0  0  0  0  0  0  0  0  0  0
  -12.0270   12.2913   -9.6156 H   0  0  0  0  0  0  0  0  0  0  0  0
  -10.2754   10.0876   -8.4306 H   0  0  0  0  0  0  0  0  0  0  0  0
  -12.0791   10.1127   -8.5276 H   0  0  0  0  0  0  0  0  0  0  0  0
   -9.0398    9.8396  -10.2489 H   0  0  0  0  0  0  0  0  0  0  0  0
   -9.7929    9.6364  -11.8694 H   0  0  0  0  0  0  0  0  0  0  0  0
   -8.7660   11.8860  -11.5900 H   0  0  0  0  0  0  0  0  0  0  0  0
  -10.5600   11.9669  -11.8275 H   0  0  0  0  0  0  0  0  0  0  0  0
   -8.8512   14.5400   -8.0485 H   0  0  0  0  0  0  0  0  0  0  0  0
  -11.8015   16.0644  -11.3006 H   0  0  0  0  0  0  0  0  0  0  0  0
  -11.4180   14.3920  -12.1190 H   0  0  0  0  0  0  0  0  0  0  0  0
  -14.8078   14.0796  -15.3987 H   0  0  0  0  0  0  0  0  0  0  0  0
  -15.7605   11.9576  -14.6411 H   0  0  0  0  0  0  0  0  0  0  0  0
  -13.8407   10.0106  -10.8865 H   0  0  0  0  0  0  0  0  0  0  0  0
  -15.1500   10.9153  -10.1725 H   0  0  0  0  0  0  0  0  0  0  0  0
  -14.5826   17.5660  -10.0820 H   0  0  0  0  0  0  0  0  0  0  0  0
  -13.2410   17.8730   -8.2620 H   0  0  0  0  0  0  0  0  0  0  0  0
   -6.9730   13.7434   -7.1443 H   0  0  0  0  0  0  0  0  0  0  0  0
   -5.8625   13.5460   -5.7230 H   0  0  0  0  0  0  0  0  0  0  0  0
   -5.5501   11.7294   -7.3909 H   0  0  0  0  0  0  0  0  0  0  0  0
   -6.1570   11.1086   -5.8067 H   0  0  0  0  0  0  0  0  0  0  0  0
  1  2  1  0
  2  3  1  0
  3  4  1  0
  4  5  1  0
  5  6  1  0
  6  7  1  0
  7  8  1  0
  8  9  1  0
  9 10  2  0
 10 11  1  0
 11 12  2  0
 12 13  1  0
 13 14  1  0
 14 15  1  0
 15 16  1  0
 16 17  1  0
 17 18  1  0
 18 19  1  0
 19 20  1  0
 13 21  2  0
 12 22  1  0
 22 23  1  0
 23 24  1  0
 24 25  2  0
 25 26  1  0
 25 27  1  0
 27 28  2  0
 28 29  1  0
 29 30  2  0
 30 31  1  0
 31 32  1  0
 32 33  1  0
 22 34  1  0
 34 35  2  0
 35 36  1  0
  5 37  1  0
 37 38  1  0
 38  2  1  0
 21  9  1  0
 30 24  1  0
 36 11  1  0
 20 15  1  0
 33 29  1  0
  1 39  1  0
  1 40  1  0
  1 41  1  0
  3 42  1  0
  3 43  1  0
  4 44  1  0
  4 45  1  0
  6 46  1  0
  6 47  1  0
  7 48  1  0
  7 49  1  0
 10 50  1  0
 15 51  1  0
 16 52  1  0
 16 53  1  0
 17 54  1  0
 17 55  1  0
 19 56  1  0
 19 57  1  0
 20 58  1  0
 20 59  1  0
 21 60  1  0
 22 61  1  0
 23 62  1  0
 27 63  1  0
 28 64  1  0
 32 65  1  0
 32 66  1  0
 35 67  1  0
 36 68  1  0
 37 69  1  0
 37 70  1  0
 38 71  1  0
 38 72  1  0
M  END
>  <meeko>  (6)
{"is_sidechain": false}

>  <source_group>  (6)
FYN canonical

>  <source_system>  (6)
FYN_saracatinib

>  <source_run>  (6)
vina_seed6619_ex64

>  <source_seed>  (6)
6619

>  <vina_pose_rank>  (6)
6

>  <vina_affinity_kcal_mol>  (6)
-8.8480000000000008

>  <vina_rmsd_to_crystal_angstrom>  (6)
3.677

$$$$
FYN_saracatinib__vina_seed6619_ex64__pose07
     RDKit          3D

 72 77  0  0  0  0  0  0  0  0999 V2000
   -9.2100    8.2790   -7.9510 C   0  0  0  0  0  0  0  0  0  0  0  0
   -9.6390    9.5810   -7.4700 N   0  0  0  0  0  0  0  0  0  0  0  0
   -8.4860   10.4210   -7.2010 C   0  0  0  0  0  0  0  0  0  0  0  0
   -8.9000   11.8300   -6.7500 C   0  0  0  0  0  0  0  0  0  0  0  0
   -9.7690   12.4900   -7.7190 N   0  0  0  0  0  0  0  0  0  0  0  0
  -10.1720   13.7890   -7.1890 C   0  0  0  0  0  0  0  0  0  0  0  0
   -9.6280   15.0240   -7.9270 C   0  0  0  0  0  0  0  0  0  0  0  0
  -10.6060   16.0220   -8.0960 O   0  0  0  0  0  0  0  0  0  0  0  0
  -11.5220   15.7990   -9.0950 C   0  0  0  0  0  0  0  0  0  0  0  0
  -12.5830   16.5900   -9.2920 C   0  0  0  0  0  0  0  0  0  0  0  0
  -13.4670   16.3460  -10.2700 C   0  0  0  0  0  0  0  0  0  0  0  0
  -13.3500   15.2860  -11.1180 C   0  0  0  0  0  0  0  0  0  0  0  0
  -12.2810   14.4630  -10.9320 C   0  0  0  0  0  0  0  0  0  0  0  0
  -12.0550   13.3690  -11.7460 O   0  0  0  0  0  0  0  0  0  0  0  0
  -12.0570   12.0460  -11.2670 C   0  0  0  0  0  0  0  0  0  0  0  0
  -13.4560   11.5120  -10.9570 C   0  0  0  0  0  0  0  0  0  0  0  0
  -13.4430    9.9950  -10.7960 C   0  0  0  0  0  0  0  0  0  0  0  0
  -12.9130    9.3740  -11.9420 O   0  0  0  0  0  0  0  0  0  0  0  0
  -11.5600    9.7070  -12.0960 C   0  0  0  0  0  0  0  0  0  0  0  0
  -11.4260   11.1990  -12.3840 C   0  0  0  0  0  0  0  0  0  0  0  0
  -11.4130   14.7540   -9.9370 C   0  0  0  0  0  0  0  0  0  0  0  0
  -14.3190   15.1590  -12.0710 C   0  0  0  0  0  0  0  0  0  0  0  0
  -14.5410   14.3110  -13.0060 N   0  0  0  0  0  0  0  0  0  0  0  0
  -14.8570   14.3280  -14.2470 C   0  0  0  0  0  0  0  0  0  0  0  0
  -14.0780   15.0050  -15.1380 C   0  0  0  0  0  0  0  0  0  0  0  0
  -12.6340   15.8750  -14.7040 Cl  0  0  0  0  0  0  0  0  0  0  0  0
  -14.3760   15.0300  -16.4520 C   0  0  0  0  0  0  0  0  0  0  0  0
  -15.4540   14.4010  -16.9400 C   0  0  0  0  0  0  0  0  0  0  0  0
  -16.2290   13.7400  -16.0760 C   0  0  0  0  0  0  0  0  0  0  0  0
  -15.9390   13.7070  -14.7690 C   0  0  0  0  0  0  0  0  0  0  0  0
  -16.7880   13.0420  -14.1730 O   0  0  0  0  0  0  0  0  0  0  0  0
  -17.7840   12.6290  -15.1090 C   0  0  0  0  0  0  0  0  0  0  0  0
  -17.2530   13.1120  -16.3380 O   0  0  0  0  0  0  0  0  0  0  0  0
  -15.2510   16.0310  -12.0860 N   0  0  0  0  0  0  0  0  0  0  0  0
  -15.2690   16.9770  -11.2510 C   0  0  0  0  0  0  0  0  0  0  0  0
  -14.4210   17.1770  -10.3430 N   0  0  0  0  0  0  0  0  0  0  0  0
  -10.9190   11.6300   -7.9590 C   0  0  0  0  0  0  0  0  0  0  0  0
  -10.4970   10.2300   -8.4440 C   0  0  0  0  0  0  0  0  0  0  0  0
   -8.9943    7.6243   -7.0938 H   0  0  0  0  0  0  0  0  0  0  0  0
  -10.0085    7.8324   -8.5617 H   0  0  0  0  0  0  0  0  0  0  0  0
   -8.3024    8.3945   -8.5617 H   0  0  0  0  0  0  0  0  0  0  0  0
   -7.8837    9.9555   -6.4069 H   0  0  0  0  0  0  0  0  0  0  0  0
   -7.9073   10.5159   -8.1316 H   0  0  0  0  0  0  0  0  0  0  0  0
   -9.4344   11.7517   -5.7917 H   0  0  0  0  0  0  0  0  0  0  0  0
   -7.9857   12.4338   -6.6527 H   0  0  0  0  0  0  0  0  0  0  0  0
  -11.2705   13.8373   -7.2193 H   0  0  0  0  0  0  0  0  0  0  0  0
   -9.7432   13.8391   -6.1773 H   0  0  0  0  0  0  0  0  0  0  0  0
   -8.7926   15.4427   -7.3467 H   0  0  0  0  0  0  0  0  0  0  0  0
   -9.3023   14.7008   -8.9267 H   0  0  0  0  0  0  0  0  0  0  0  0
  -12.7334   17.4605   -8.6365 H   0  0  0  0  0  0  0  0  0  0  0  0
  -11.5042   12.0019  -10.3170 H   0  0  0  0  0  0  0  0  0  0  0  0
  -13.8160   11.9690  -10.0235 H   0  0  0  0  0  0  0  0  0  0  0  0
  -14.1208   11.7682  -11.7951 H   0  0  0  0  0  0  0  0  0  0  0  0
  -12.8258    9.7304   -9.9247 H   0  0  0  0  0  0  0  0  0  0  0  0
  -14.4769    9.6473  -10.6537 H   0  0  0  0  0  0  0  0  0  0  0  0
  -11.0161    9.4630  -11.1715 H   0  0  0  0  0  0  0  0  0  0  0  0
  -11.1379    9.1351  -12.9355 H   0  0  0  0  0  0  0  0  0  0  0  0
  -10.3589   11.4530  -12.4660 H   0  0  0  0  0  0  0  0  0  0  0  0
  -11.9535   11.4183  -13.3240 H   0  0  0  0  0  0  0  0  0  0  0  0
  -10.5502   14.0846   -9.8051 H   0  0  0  0  0  0  0  0  0  0  0  0
  -13.7171   15.7653  -12.7638 H   0  0  0  0  0  0  0  0  0  0  0  0
  -14.4370   13.3170  -12.6730 H   0  0  0  0  0  0  0  0  0  0  0  0
  -13.7182   15.5802  -17.1409 H   0  0  0  0  0  0  0  0  0  0  0  0
  -15.6921   14.4281  -18.0136 H   0  0  0  0  0  0  0  0  0  0  0  0
  -17.8906   11.5343  -15.1224 H   0  0  0  0  0  0  0  0  0  0  0  0
  -18.7912   13.0082  -14.8814 H   0  0  0  0  0  0  0  0  0  0  0  0
  -16.1018   17.6919  -11.3235 H   0  0  0  0  0  0  0  0  0  0  0  0
  -14.4950   17.9380   -9.7220 H   0  0  0  0  0  0  0  0  0  0  0  0
  -11.4870   11.5259   -7.0228 H   0  0  0  0  0  0  0  0  0  0  0  0
  -11.5331   12.0929   -8.7455 H   0  0  0  0  0  0  0  0  0  0  0  0
  -11.3965    9.6158   -8.5974 H   0  0  0  0  0  0  0  0  0  0  0  0
   -9.9399   10.3378   -9.3863 H   0  0  0  0  0  0  0  0  0  0  0  0
  1  2  1  0
  2  3  1  0
  3  4  1  0
  4  5  1  0
  5  6  1  0
  6  7  1  0
  7  8  1  0
  8  9  1  0
  9 10  2  0
 10 11  1  0
 11 12  2  0
 12 13  1  0
 13 14  1  0
 14 15  1  0
 15 16  1  0
 16 17  1  0
 17 18  1  0
 18 19  1  0
 19 20  1  0
 13 21  2  0
 12 22  1  0
 22 23  1  0
 23 24  1  0
 24 25  2  0
 25 26  1  0
 25 27  1  0
 27 28  2  0
 28 29  1  0
 29 30  2  0
 30 31  1  0
 31 32  1  0
 32 33  1  0
 22 34  1  0
 34 35  2  0
 35 36  1  0
  5 37  1  0
 37 38  1  0
 38  2  1  0
 21  9  1  0
 30 24  1  0
 36 11  1  0
 20 15  1  0
 33 29  1  0
  1 39  1  0
  1 40  1  0
  1 41  1  0
  3 42  1  0
  3 43  1  0
  4 44  1  0
  4 45  1  0
  6 46  1  0
  6 47  1  0
  7 48  1  0
  7 49  1  0
 10 50  1  0
 15 51  1  0
 16 52  1  0
 16 53  1  0
 17 54  1  0
 17 55  1  0
 19 56  1  0
 19 57  1  0
 20 58  1  0
 20 59  1  0
 21 60  1  0
 22 61  1  0
 23 62  1  0
 27 63  1  0
 28 64  1  0
 32 65  1  0
 32 66  1  0
 35 67  1  0
 36 68  1  0
 37 69  1  0
 37 70  1  0
 38 71  1  0
 38 72  1  0
M  END
>  <meeko>  (7)
{"is_sidechain": false}

>  <source_group>  (7)
FYN canonical

>  <source_system>  (7)
FYN_saracatinib

>  <source_run>  (7)
vina_seed6619_ex64

>  <source_seed>  (7)
6619

>  <vina_pose_rank>  (7)
7

>  <vina_affinity_kcal_mol>  (7)
-8.8390000000000004

>  <vina_rmsd_to_crystal_angstrom>  (7)
4.4428000000000001

$$$$
FYN_saracatinib__vina_seed6619_ex64__pose08
     RDKit          3D

 72 77  0  0  0  0  0  0  0  0999 V2000
   -7.1850   22.8070   -4.2030 C   0  0  0  0  0  0  0  0  0  0  0  0
   -7.5080   21.4580   -4.6340 N   0  0  0  0  0  0  0  0  0  0  0  0
   -6.3370   20.8200   -5.2080 C   0  0  0  0  0  0  0  0  0  0  0  0
   -6.6220   19.3680   -5.6190 C   0  0  0  0  0  0  0  0  0  0  0  0
   -7.1180   18.5640   -4.5060 N   0  0  0  0  0  0  0  0  0  0  0  0
   -7.4290   17.2230   -4.9900 C   0  0  0  0  0  0  0  0  0  0  0  0
   -8.2960   17.1400   -6.2580 C   0  0  0  0  0  0  0  0  0  0  0  0
   -9.2880   16.1450   -6.1660 O   0  0  0  0  0  0  0  0  0  0  0  0
  -10.0370   15.9420   -7.2990 C   0  0  0  0  0  0  0  0  0  0  0  0
  -11.1310   16.6580   -7.5790 C   0  0  0  0  0  0  0  0  0  0  0  0
  -11.8510   16.4340   -8.6890 C   0  0  0  0  0  0  0  0  0  0  0  0
  -11.5240   15.4690   -9.5930 C   0  0  0  0  0  0  0  0  0  0  0  0
  -10.4180   14.7220   -9.3250 C   0  0  0  0  0  0  0  0  0  0  0  0
   -9.9850   13.7280  -10.1830 O   0  0  0  0  0  0  0  0  0  0  0  0
   -9.8440   12.3850   -9.7880 C   0  0  0  0  0  0  0  0  0  0  0  0
  -10.9660   11.8980   -8.8710 C   0  0  0  0  0  0  0  0  0  0  0  0
  -10.9730   10.3770   -8.7690 C   0  0  0  0  0  0  0  0  0  0  0  0
  -11.0800    9.7900  -10.0430 O   0  0  0  0  0  0  0  0  0  0  0  0
   -9.9370   10.0700  -10.8070 C   0  0  0  0  0  0  0  0  0  0  0  0
   -9.8610   11.5670  -11.0900 C   0  0  0  0  0  0  0  0  0  0  0  0
   -9.7210   14.9900   -8.1970 C   0  0  0  0  0  0  0  0  0  0  0  0
  -12.3410   15.3520  -10.6800 C   0  0  0  0  0  0  0  0  0  0  0  0
  -12.3570   14.5770  -11.7010 N   0  0  0  0  0  0  0  0  0  0  0  0
  -13.2160   13.8970  -12.3630 C   0  0  0  0  0  0  0  0  0  0  0  0
  -13.6720   14.3580  -13.5620 C   0  0  0  0  0  0  0  0  0  0  0  0
  -13.1530   15.8520  -14.2910 Cl  0  0  0  0  0  0  0  0  0  0  0  0
  -14.5660   13.6590  -14.2890 C   0  0  0  0  0  0  0  0  0  0  0  0
  -15.0540   12.4860  -13.8620 C   0  0  0  0  0  0  0  0  0  0  0  0
  -14.6210   12.0270  -12.6850 C   0  0  0  0  0  0  0  0  0  0  0  0
  -13.7310   12.7140  -11.9570 C   0  0  0  0  0  0  0  0  0  0  0  0
  -13.4820   12.0980  -10.9190 O   0  0  0  0  0  0  0  0  0  0  0  0
  -14.2990   10.9290  -10.8750 C   0  0  0  0  0  0  0  0  0  0  0  0
  -14.9580   10.9790  -12.1350 O   0  0  0  0  0  0  0  0  0  0  0  0
  -13.3400   16.1430  -10.7570 N   0  0  0  0  0  0  0  0  0  0  0  0
  -13.5560   17.0040   -9.8600 C   0  0  0  0  0  0  0  0  0  0  0  0
  -12.8600   17.1880   -8.8290 N   0  0  0  0  0  0  0  0  0  0  0  0
   -8.2960   19.2220   -3.9600 C   0  0  0  0  0  0  0  0  0  0  0  0
   -7.9950   20.6660   -3.5190 C   0  0  0  0  0  0  0  0  0  0  0  0
   -7.1751   22.8483   -3.1038 H   0  0  0  0  0  0  0  0  0  0  0  0
   -6.1942   23.0880   -4.5894 H   0  0  0  0  0  0  0  0  0  0  0  0
   -7.9411   23.5063   -4.5894 H   0  0  0  0  0  0  0  0  0  0  0  0
   -6.0228   21.3865   -6.0970 H   0  0  0  0  0  0  0  0  0  0  0  0
   -5.5447   20.8100   -4.4450 H   0  0  0  0  0  0  0  0  0  0  0  0
   -7.3770   19.3686   -6.4190 H   0  0  0  0  0  0  0  0  0  0  0  0
   -5.6756   18.9230   -5.9599 H   0  0  0  0  0  0  0  0  0  0  0  0
   -6.4771   16.7137   -5.2010 H   0  0  0  0  0  0  0  0  0  0  0  0
   -8.0276   16.7555   -4.1943 H   0  0  0  0  0  0  0  0  0  0  0  0
   -8.7849   18.1127   -6.4159 H   0  0  0  0  0  0  0  0  0  0  0  0
   -7.6364   16.8791   -7.0987 H   0  0  0  0  0  0  0  0  0  0  0  0
  -11.4481   17.4489   -6.8834 H   0  0  0  0  0  0  0  0  0  0  0  0
   -8.9159   12.2708   -9.2087 H   0  0  0  0  0  0  0  0  0  0  0  0
  -10.8199   12.3243   -7.8675 H   0  0  0  0  0  0  0  0  0  0  0  0
  -11.9278   12.2233   -9.2941 H   0  0  0  0  0  0  0  0  0  0  0  0
  -10.0377   10.0433   -8.2959 H   0  0  0  0  0  0  0  0  0  0  0  0
  -11.8395   10.0687   -8.1655 H   0  0  0  0  0  0  0  0  0  0  0  0
   -9.0405    9.7570  -10.2518 H   0  0  0  0  0  0  0  0  0  0  0  0
   -9.9923    9.5219  -11.7591 H   0  0  0  0  0  0  0  0  0  0  0  0
   -8.9421   11.7777  -11.6568 H   0  0  0  0  0  0  0  0  0  0  0  0
  -10.7515   11.8553  -11.6679 H   0  0  0  0  0  0  0  0  0  0  0  0
   -8.8259   14.3825   -7.9979 H   0  0  0  0  0  0  0  0  0  0  0  0
  -11.7100   16.0649  -11.2310 H   0  0  0  0  0  0  0  0  0  0  0  0
  -11.3990   14.4600  -12.1250 H   0  0  0  0  0  0  0  0  0  0  0  0
  -14.9032   14.0608  -15.2559 H   0  0  0  0  0  0  0  0  0  0  0  0
  -15.7850   11.9216  -14.4596 H   0  0  0  0  0  0  0  0  0  0  0  0
  -13.6889   10.0187  -10.7792 H   0  0  0  0  0  0  0  0  0  0  0  0
  -14.9863   10.9012  -10.0166 H   0  0  0  0  0  0  0  0  0  0  0  0
  -14.4340   17.6533   -9.9922 H   0  0  0  0  0  0  0  0  0  0  0  0
  -13.0860   17.8810   -8.1660 H   0  0  0  0  0  0  0  0  0  0  0  0
   -9.0812   19.2418   -4.7301 H   0  0  0  0  0  0  0  0  0  0  0  0
   -8.6226   18.6565   -3.0748 H   0  0  0  0  0  0  0  0  0  0  0  0
   -8.9164   21.1226   -3.1283 H   0  0  0  0  0  0  0  0  0  0  0  0
   -7.2183   20.6407   -2.7405 H   0  0  0  0  0  0  0  0  0  0  0  0
  1  2  1  0
  2  3  1  0
  3  4  1  0
  4  5  1  0
  5  6  1  0
  6  7  1  0
  7  8  1  0
  8  9  1  0
  9 10  2  0
 10 11  1  0
 11 12  2  0
 12 13  1  0
 13 14  1  0
 14 15  1  0
 15 16  1  0
 16 17  1  0
 17 18  1  0
 18 19  1  0
 19 20  1  0
 13 21  2  0
 12 22  1  0
 22 23  1  0
 23 24  1  0
 24 25  2  0
 25 26  1  0
 25 27  1  0
 27 28  2  0
 28 29  1  0
 29 30  2  0
 30 31  1  0
 31 32  1  0
 32 33  1  0
 22 34  1  0
 34 35  2  0
 35 36  1  0
  5 37  1  0
 37 38  1  0
 38  2  1  0
 21  9  1  0
 30 24  1  0
 36 11  1  0
 20 15  1  0
 33 29  1  0
  1 39  1  0
  1 40  1  0
  1 41  1  0
  3 42  1  0
  3 43  1  0
  4 44  1  0
  4 45  1  0
  6 46  1  0
  6 47  1  0
  7 48  1  0
  7 49  1  0
 10 50  1  0
 15 51  1  0
 16 52  1  0
 16 53  1  0
 17 54  1  0
 17 55  1  0
 19 56  1  0
 19 57  1  0
 20 58  1  0
 20 59  1  0
 21 60  1  0
 22 61  1  0
 23 62  1  0
 27 63  1  0
 28 64  1  0
 32 65  1  0
 32 66  1  0
 35 67  1  0
 36 68  1  0
 37 69  1  0
 37 70  1  0
 38 71  1  0
 38 72  1  0
M  END
>  <meeko>  (8)
{"is_sidechain": false}

>  <source_group>  (8)
FYN canonical

>  <source_system>  (8)
FYN_saracatinib

>  <source_run>  (8)
vina_seed6619_ex64

>  <source_seed>  (8)
6619

>  <vina_pose_rank>  (8)
8

>  <vina_affinity_kcal_mol>  (8)
-8.7609999999999992

>  <vina_rmsd_to_crystal_angstrom>  (8)
2.9900000000000002

$$$$
FYN_saracatinib__vina_seed6619_ex64__pose09
     RDKit          3D

 72 77  0  0  0  0  0  0  0  0999 V2000
   -7.1480   13.3060    0.1940 C   0  0  0  0  0  0  0  0  0  0  0  0
   -7.2810   13.7700   -1.1760 N   0  0  0  0  0  0  0  0  0  0  0  0
   -6.4800   12.9460   -2.0640 C   0  0  0  0  0  0  0  0  0  0  0  0
   -6.6430   13.3660   -3.5320 C   0  0  0  0  0  0  0  0  0  0  0  0
   -8.0370   13.3380   -3.9660 N   0  0  0  0  0  0  0  0  0  0  0  0
   -8.1160   13.8120   -5.3430 C   0  0  0  0  0  0  0  0  0  0  0  0
   -8.6710   12.8170   -6.3760 C   0  0  0  0  0  0  0  0  0  0  0  0
  -10.0780   12.8150   -6.4190 O   0  0  0  0  0  0  0  0  0  0  0  0
  -10.6410   13.2140   -7.6060 C   0  0  0  0  0  0  0  0  0  0  0  0
  -11.1160   14.4490   -7.8010 C   0  0  0  0  0  0  0  0  0  0  0  0
  -11.6690   14.8110   -8.9680 C   0  0  0  0  0  0  0  0  0  0  0  0
  -11.7890   13.9560  -10.0210 C   0  0  0  0  0  0  0  0  0  0  0  0
  -11.3180   12.6900   -9.8430 C   0  0  0  0  0  0  0  0  0  0  0  0
  -11.3720   11.7450  -10.8510 O   0  0  0  0  0  0  0  0  0  0  0  0
  -10.8080   10.4620  -10.7270 C   0  0  0  0  0  0  0  0  0  0  0  0
  -11.8480    9.3430  -10.6530 C   0  0  0  0  0  0  0  0  0  0  0  0
  -11.2060    7.9790  -10.8840 C   0  0  0  0  0  0  0  0  0  0  0  0
  -10.5260    7.9480  -12.1160 O   0  0  0  0  0  0  0  0  0  0  0  0
   -9.4380    8.8320  -12.0940 C   0  0  0  0  0  0  0  0  0  0  0  0
   -9.9410   10.2670  -11.9810 C   0  0  0  0  0  0  0  0  0  0  0  0
  -10.7630   12.3740   -8.6510 C   0  0  0  0  0  0  0  0  0  0  0  0
  -12.3680   14.4570  -11.1500 C   0  0  0  0  0  0  0  0  0  0  0  0
  -12.6500   13.9640  -12.2990 N   0  0  0  0  0  0  0  0  0  0  0  0
  -13.6660   13.8850  -13.0740 C   0  0  0  0  0  0  0  0  0  0  0  0
  -14.6190   12.9360  -12.8520 C   0  0  0  0  0  0  0  0  0  0  0  0
  -14.5600   11.7850  -11.5470 Cl  0  0  0  0  0  0  0  0  0  0  0  0
  -15.7070   12.8370  -13.6400 C   0  0  0  0  0  0  0  0  0  0  0  0
  -15.8970   13.6570  -14.6830 C   0  0  0  0  0  0  0  0  0  0  0  0
  -14.9670   14.5880  -14.9150 C   0  0  0  0  0  0  0  0  0  0  0  0
  -13.8840   14.6950  -14.1350 C   0  0  0  0  0  0  0  0  0  0  0  0
  -13.1730   15.6180  -14.5390 O   0  0  0  0  0  0  0  0  0  0  0  0
  -13.7570   16.1580  -15.7230 C   0  0  0  0  0  0  0  0  0  0  0  0
  -14.9690   15.4200  -15.8200 O   0  0  0  0  0  0  0  0  0  0  0  0
  -12.7540   15.6740  -11.1270 N   0  0  0  0  0  0  0  0  0  0  0  0
  -12.5980   16.3840  -10.0950 C   0  0  0  0  0  0  0  0  0  0  0  0
  -12.0740   16.0120   -9.0140 N   0  0  0  0  0  0  0  0  0  0  0  0
   -8.8100   14.1790   -3.0650 C   0  0  0  0  0  0  0  0  0  0  0  0
   -8.6690   13.7310   -1.5980 C   0  0  0  0  0  0  0  0  0  0  0  0
   -7.3840   14.1292    0.8845 H   0  0  0  0  0  0  0  0  0  0  0  0
   -7.8430   12.4712    0.3675 H   0  0  0  0  0  0  0  0  0  0  0  0
   -6.1163   12.9662    0.3675 H   0  0  0  0  0  0  0  0  0  0  0  0
   -5.4213   13.0426   -1.7813 H   0  0  0  0  0  0  0  0  0  0  0  0
   -6.8216   11.9050   -1.9659 H   0  0  0  0  0  0  0  0  0  0  0  0
   -6.2558   14.3885   -3.6523 H   0  0  0  0  0  0  0  0  0  0  0  0
   -6.0839   12.6487   -4.1508 H   0  0  0  0  0  0  0  0  0  0  0  0
   -8.7622   14.7021   -5.3544 H   0  0  0  0  0  0  0  0  0  0  0  0
   -7.0762   14.0013   -5.6478 H   0  0  0  0  0  0  0  0  0  0  0  0
   -8.2878   13.0900   -7.3703 H   0  0  0  0  0  0  0  0  0  0  0  0
   -8.3437   11.8095   -6.0798 H   0  0  0  0  0  0  0  0  0  0  0  0
  -11.0516   15.1846   -6.9856 H   0  0  0  0  0  0  0  0  0  0  0  0
  -10.2402   10.4033   -9.7867 H   0  0  0  0  0  0  0  0  0  0  0  0
  -12.3180    9.3548   -9.6585 H   0  0  0  0  0  0  0  0  0  0  0  0
  -12.5993    9.5125  -11.4384 H   0  0  0  0  0  0  0  0  0  0  0  0
  -10.4917    7.7747  -10.0728 H   0  0  0  0  0  0  0  0  0  0  0  0
  -11.9975    7.2152  -10.8992 H   0  0  0  0  0  0  0  0  0  0  0  0
   -8.7969    8.6007  -11.2306 H   0  0  0  0  0  0  0  0  0  0  0  0
   -8.8612    8.7214  -13.0241 H   0  0  0  0  0  0  0  0  0  0  0  0
   -9.0769   10.9456  -11.9274 H   0  0  0  0  0  0  0  0  0  0  0  0
  -10.5574   10.4876  -12.8649 H   0  0  0  0  0  0  0  0  0  0  0  0
  -10.3812   11.3501   -8.5253 H   0  0  0  0  0  0  0  0  0  0  0  0
  -11.3785   14.7601  -11.5229 H   0  0  0  0  0  0  0  0  0  0  0  0
  -11.8200   13.4870  -12.7410 H   0  0  0  0  0  0  0  0  0  0  0  0
  -16.4584   12.0638  -13.4220 H   0  0  0  0  0  0  0  0  0  0  0  0
  -16.7860   13.5669  -15.3245 H   0  0  0  0  0  0  0  0  0  0  0  0
  -13.9528   17.2352  -15.6163 H   0  0  0  0  0  0  0  0  0  0  0  0
  -13.1146   16.0733  -16.6119 H   0  0  0  0  0  0  0  0  0  0  0  0
  -12.9531   17.4239  -10.1459 H   0  0  0  0  0  0  0  0  0  0  0  0
  -11.9840   16.6200   -8.2440 H   0  0  0  0  0  0  0  0  0  0  0  0
   -8.4560   15.2165   -3.1555 H   0  0  0  0  0  0  0  0  0  0  0  0
   -9.8701   14.0956   -3.3464 H   0  0  0  0  0  0  0  0  0  0  0  0
   -9.2591   14.4032   -0.9578 H   0  0  0  0  0  0  0  0  0  0  0  0
   -9.0345   12.6973   -1.5094 H   0  0  0  0  0  0  0  0  0  0  0  0
  1  2  1  0
  2  3  1  0
  3  4  1  0
  4  5  1  0
  5  6  1  0
  6  7  1  0
  7  8  1  0
  8  9  1  0
  9 10  2  0
 10 11  1  0
 11 12  2  0
 12 13  1  0
 13 14  1  0
 14 15  1  0
 15 16  1  0
 16 17  1  0
 17 18  1  0
 18 19  1  0
 19 20  1  0
 13 21  2  0
 12 22  1  0
 22 23  1  0
 23 24  1  0
 24 25  2  0
 25 26  1  0
 25 27  1  0
 27 28  2  0
 28 29  1  0
 29 30  2  0
 30 31  1  0
 31 32  1  0
 32 33  1  0
 22 34  1  0
 34 35  2  0
 35 36  1  0
  5 37  1  0
 37 38  1  0
 38  2  1  0
 21  9  1  0
 30 24  1  0
 36 11  1  0
 20 15  1  0
 33 29  1  0
  1 39  1  0
  1 40  1  0
  1 41  1  0
  3 42  1  0
  3 43  1  0
  4 44  1  0
  4 45  1  0
  6 46  1  0
  6 47  1  0
  7 48  1  0
  7 49  1  0
 10 50  1  0
 15 51  1  0
 16 52  1  0
 16 53  1  0
 17 54  1  0
 17 55  1  0
 19 56  1  0
 19 57  1  0
 20 58  1  0
 20 59  1  0
 21 60  1  0
 22 61  1  0
 23 62  1  0
 27 63  1  0
 28 64  1  0
 32 65  1  0
 32 66  1  0
 35 67  1  0
 36 68  1  0
 37 69  1  0
 37 70  1  0
 38 71  1  0
 38 72  1  0
M  END
>  <meeko>  (9)
{"is_sidechain": false}

>  <source_group>  (9)
FYN canonical

>  <source_system>  (9)
FYN_saracatinib

>  <source_run>  (9)
vina_seed6619_ex64

>  <source_seed>  (9)
6619

>  <vina_pose_rank>  (9)
9

>  <vina_affinity_kcal_mol>  (9)
-8.7330000000000005

>  <vina_rmsd_to_crystal_angstrom>  (9)
2.7061999999999999

$$$$
FYN_saracatinib__vina_seed6619_ex64__pose10
     RDKit          3D

 72 77  0  0  0  0  0  0  0  0999 V2000
   -6.6890   20.0620   -5.4240 C   0  0  0  0  0  0  0  0  0  0  0  0
   -7.3930   18.7950   -5.5230 N   0  0  0  0  0  0  0  0  0  0  0  0
   -6.4500   17.7120   -5.7390 C   0  0  0  0  0  0  0  0  0  0  0  0
   -7.1510   16.3470   -5.7850 C   0  0  0  0  0  0  0  0  0  0  0  0
   -7.9310   16.0810   -4.5800 N   0  0  0  0  0  0  0  0  0  0  0  0
   -8.6180   14.8030   -4.7300 C   0  0  0  0  0  0  0  0  0  0  0  0
   -8.5750   14.1660   -6.1290 C   0  0  0  0  0  0  0  0  0  0  0  0
   -9.7610   13.4750   -6.4410 O   0  0  0  0  0  0  0  0  0  0  0  0
  -10.4180   13.8940   -7.5720 C   0  0  0  0  0  0  0  0  0  0  0  0
  -11.2630   14.9310   -7.5740 C   0  0  0  0  0  0  0  0  0  0  0  0
  -11.8980   15.3160   -8.6900 C   0  0  0  0  0  0  0  0  0  0  0  0
  -11.7350   14.6810   -9.8840 C   0  0  0  0  0  0  0  0  0  0  0  0
  -10.8840   13.6170   -9.9050 C   0  0  0  0  0  0  0  0  0  0  0  0
  -10.6290   12.9120  -11.0670 O   0  0  0  0  0  0  0  0  0  0  0  0
  -10.1180   11.6010  -11.0680 C   0  0  0  0  0  0  0  0  0  0  0  0
  -10.7240   10.7110  -12.1540 C   0  0  0  0  0  0  0  0  0  0  0  0
   -9.8980    9.4450  -12.3520 C   0  0  0  0  0  0  0  0  0  0  0  0
   -8.5610    9.7600  -12.6550 O   0  0  0  0  0  0  0  0  0  0  0  0
   -7.9500   10.3920  -11.5620 C   0  0  0  0  0  0  0  0  0  0  0  0
   -8.6070   11.7460  -11.3160 C   0  0  0  0  0  0  0  0  0  0  0  0
  -10.2610   13.2720   -8.7560 C   0  0  0  0  0  0  0  0  0  0  0  0
  -12.4390   15.1800  -10.9410 C   0  0  0  0  0  0  0  0  0  0  0  0
  -12.5450   14.8500  -12.1750 N   0  0  0  0  0  0  0  0  0  0  0  0
  -13.2990   14.1110  -12.8980 C   0  0  0  0  0  0  0  0  0  0  0  0
  -13.5910   14.4810  -14.1780 C   0  0  0  0  0  0  0  0  0  0  0  0
  -12.9910   15.9310  -14.9310 Cl  0  0  0  0  0  0  0  0  0  0  0  0
  -14.3700   13.7170  -14.9680 C   0  0  0  0  0  0  0  0  0  0  0  0
  -14.9020   12.5670  -14.5310 C   0  0  0  0  0  0  0  0  0  0  0  0
  -14.6290   12.1960  -13.2770 C   0  0  0  0  0  0  0  0  0  0  0  0
  -13.8530   12.9480  -12.4850 C   0  0  0  0  0  0  0  0  0  0  0  0
  -13.7430   12.4080  -11.3820 O   0  0  0  0  0  0  0  0  0  0  0  0
  -14.5470   11.2300  -11.3680 C   0  0  0  0  0  0  0  0  0  0  0  0
  -15.0280   11.1830  -12.7070 O   0  0  0  0  0  0  0  0  0  0  0  0
  -13.1940   16.1860  -10.7260 N   0  0  0  0  0  0  0  0  0  0  0  0
  -13.2780   16.7000   -9.5760 C   0  0  0  0  0  0  0  0  0  0  0  0
  -12.6660   16.3140   -8.5470 N   0  0  0  0  0  0  0  0  0  0  0  0
   -8.8730   17.1760   -4.3970 C   0  0  0  0  0  0  0  0  0  0  0  0
   -8.1600   18.5390   -4.3170 C   0  0  0  0  0  0  0  0  0  0  0  0
   -6.5457   20.3200   -4.3643 H   0  0  0  0  0  0  0  0  0  0  0  0
   -5.7091   19.9764   -5.9164 H   0  0  0  0  0  0  0  0  0  0  0  0
   -7.2793   20.8489   -5.9164 H   0  0  0  0  0  0  0  0  0  0  0  0
   -5.9300   17.8777   -6.6941 H   0  0  0  0  0  0  0  0  0  0  0  0
   -5.7401   17.7039   -4.8988 H   0  0  0  0  0  0  0  0  0  0  0  0
   -7.8250   16.3251   -6.6541 H   0  0  0  0  0  0  0  0  0  0  0  0
   -6.3731   15.5728   -5.8586 H   0  0  0  0  0  0  0  0  0  0  0  0
   -8.1623   14.0928   -4.0243 H   0  0  0  0  0  0  0  0  0  0  0  0
   -9.6798   15.0166   -4.5377 H   0  0  0  0  0  0  0  0  0  0  0  0
   -8.4227   14.9605   -6.8743 H   0  0  0  0  0  0  0  0  0  0  0  0
   -7.7501   13.4384   -6.1409 H   0  0  0  0  0  0  0  0  0  0  0  0
  -11.4409   15.4807   -6.6379 H   0  0  0  0  0  0  0  0  0  0  0  0
  -10.3627   11.1138  -10.1126 H   0  0  0  0  0  0  0  0  0  0  0  0
  -11.7460   10.4305  -11.8594 H   0  0  0  0  0  0  0  0  0  0  0  0
  -10.7340   11.2725  -13.0998 H   0  0  0  0  0  0  0  0  0  0  0  0
   -9.9269    8.8481  -11.4285 H   0  0  0  0  0  0  0  0  0  0  0  0
  -10.3237    8.8754  -13.1913 H   0  0  0  0  0  0  0  0  0  0  0  0
   -8.0627    9.7632  -10.6665 H   0  0  0  0  0  0  0  0  0  0  0  0
   -6.8817   10.5402  -11.7783 H   0  0  0  0  0  0  0  0  0  0  0  0
   -8.1432   12.2139  -10.4351 H   0  0  0  0  0  0  0  0  0  0  0  0
   -8.4617   12.3685  -12.2112 H   0  0  0  0  0  0  0  0  0  0  0  0
   -9.5714   12.4157   -8.7909 H   0  0  0  0  0  0  0  0  0  0  0  0
  -11.5960   15.8413  -11.1903 H   0  0  0  0  0  0  0  0  0  0  0  0
  -11.8090   15.3110  -12.7730 H   0  0  0  0  0  0  0  0  0  0  0  0
  -14.5747   14.0452  -15.9977 H   0  0  0  0  0  0  0  0  0  0  0  0
  -15.5403   11.9510  -15.1814 H   0  0  0  0  0  0  0  0  0  0  0  0
  -13.9473   10.3398  -11.1274 H   0  0  0  0  0  0  0  0  0  0  0  0
  -15.3448   11.2469  -10.6109 H   0  0  0  0  0  0  0  0  0  0  0  0
  -13.9481   17.5651   -9.4634 H   0  0  0  0  0  0  0  0  0  0  0  0
  -12.7780   16.7620   -7.6770 H   0  0  0  0  0  0  0  0  0  0  0  0
   -9.5721   17.1895   -5.2462 H   0  0  0  0  0  0  0  0  0  0  0  0
   -9.4052   17.0132   -3.4482 H   0  0  0  0  0  0  0  0  0  0  0  0
   -8.9122   19.3321   -4.1936 H   0  0  0  0  0  0  0  0  0  0  0  0
   -7.4714   18.5252   -3.4593 H   0  0  0  0  0  0  0  0  0  0  0  0
  1  2  1  0
  2  3  1  0
  3  4  1  0
  4  5  1  0
  5  6  1  0
  6  7  1  0
  7  8  1  0
  8  9  1  0
  9 10  2  0
 10 11  1  0
 11 12  2  0
 12 13  1  0
 13 14  1  0
 14 15  1  0
 15 16  1  0
 16 17  1  0
 17 18  1  0
 18 19  1  0
 19 20  1  0
 13 21  2  0
 12 22  1  0
 22 23  1  0
 23 24  1  0
 24 25  2  0
 25 26  1  0
 25 27  1  0
 27 28  2  0
 28 29  1  0
 29 30  2  0
 30 31  1  0
 31 32  1  0
 32 33  1  0
 22 34  1  0
 34 35  2  0
 35 36  1  0
  5 37  1  0
 37 38  1  0
 38  2  1  0
 21  9  1  0
 30 24  1  0
 36 11  1  0
 20 15  1  0
 33 29  1  0
  1 39  1  0
  1 40  1  0
  1 41  1  0
  3 42  1  0
  3 43  1  0
  4 44  1  0
  4 45  1  0
  6 46  1  0
  6 47  1  0
  7 48  1  0
  7 49  1  0
 10 50  1  0
 15 51  1  0
 16 52  1  0
 16 53  1  0
 17 54  1  0
 17 55  1  0
 19 56  1  0
 19 57  1  0
 20 58  1  0
 20 59  1  0
 21 60  1  0
 22 61  1  0
 23 62  1  0
 27 63  1  0
 28 64  1  0
 32 65  1  0
 32 66  1  0
 35 67  1  0
 36 68  1  0
 37 69  1  0
 37 70  1  0
 38 71  1  0
 38 72  1  0
M  END
>  <meeko>  (10)
{"is_sidechain": false}

>  <source_group>  (10)
FYN canonical

>  <source_system>  (10)
FYN_saracatinib

>  <source_run>  (10)
vina_seed6619_ex64

>  <source_seed>  (10)
6619

>  <vina_pose_rank>  (10)
10

>  <vina_affinity_kcal_mol>  (10)
-8.4819999999999993

>  <vina_rmsd_to_crystal_angstrom>  (10)
2.9832000000000001

$$$$
