FYN_saracatinib__vina_seed6619_ex64__pose01


 40 45  0  0  0  0  0  0  0  0999 V2000
  -10.1160   16.0190   -7.4480 C   0  0  0  0  0  0  0  0  0  0  0  0
  -11.2200   16.7230   -7.7240 C   0  0  0  0  0  0  0  0  0  0  0  0
  -11.9670   16.4610   -8.8060 C   0  0  0  0  0  0  0  0  0  0  0  0
  -11.6600   15.4680   -9.6870 C   0  0  0  0  0  0  0  0  0  0  0  0
  -10.5440   14.7330   -9.4230 C   0  0  0  0  0  0  0  0  0  0  0  0
   -9.8190   15.0400   -8.3230 C   0  0  0  0  0  0  0  0  0  0  0  0
  -12.5050   15.3130  -10.7470 C   0  0  0  0  0  0  0  0  0  0  0  0
  -13.5080   16.0980  -10.8240 N   0  0  0  0  0  0  0  0  0  0  0  0
  -13.7050   16.9870   -9.9500 C   0  0  0  0  0  0  0  0  0  0  0  0
  -12.9820   17.2070   -8.9440 N   0  0  0  0  0  0  0  0  0  0  0  0
  -13.1940   17.9200   -8.2980 H   0  0  0  0  0  0  0  0  0  0  0  0
  -12.5440   14.5060  -11.7420 N   0  0  0  0  0  0  0  0  0  0  0  0
  -11.6260   14.0090  -11.8860 H   0  0  0  0  0  0  0  0  0  0  0  0
  -13.3920   14.1270  -12.6230 C   0  0  0  0  0  0  0  0  0  0  0  0
  -14.1210   12.9930  -12.4220 C   0  0  0  0  0  0  0  0  0  0  0  0
  -13.9850   11.9870  -11.0080 Cl  0  0  0  0  0  0  0  0  0  0  0  0
  -15.0320   12.5750  -13.3230 C   0  0  0  0  0  0  0  0  0  0  0  0
  -15.2550   13.2490  -14.4600 C   0  0  0  0  0  0  0  0  0  0  0  0
  -14.5420   14.3590  -14.6720 C   0  0  0  0  0  0  0  0  0  0  0  0
  -13.6370   14.7820  -13.7810 C   0  0  0  0  0  0  0  0  0  0  0  0
  -13.1090   15.8190  -14.1880 O   0  0  0  0  0  0  0  0  0  0  0  0
  -13.6260   16.1150  -15.4850 C   0  0  0  0  0  0  0  0  0  0  0  0
  -14.6070   15.0990  -15.6530 O   0  0  0  0  0  0  0  0  0  0  0  0
   -9.3380   16.2620   -6.3430 O   0  0  0  0  0  0  0  0  0  0  0  0
   -7.9820   15.9010   -6.4560 C   0  0  0  0  0  0  0  0  0  0  0  0
   -7.5910   14.7780   -5.4800 C   0  0  0  0  0  0  0  0  0  0  0  0
   -9.1380   13.7840   -0.1440 C   0  0  0  0  0  0  0  0  0  0  0  0
   -8.4590   13.8370   -1.4270 N   0  0  0  0  0  0  0  0  0  0  0  0
   -9.3220   13.3160   -2.4730 C   0  0  0  0  0  0  0  0  0  0  0  0
   -8.6630   13.4140   -3.8560 C   0  0  0  0  0  0  0  0  0  0  0  0
   -8.2670   14.7800   -4.1880 N   0  0  0  0  0  0  0  0  0  0  0  0
   -7.3960   15.2690   -3.1290 C   0  0  0  0  0  0  0  0  0  0  0  0
   -8.0760   15.2000   -1.7480 C   0  0  0  0  0  0  0  0  0  0  0  0
  -10.1300   13.7140  -10.2600 O   0  0  0  0  0  0  0  0  0  0  0  0
  -10.0480   12.3710   -9.8470 C   0  0  0  0  0  0  0  0  0  0  0  0
  -11.1650   11.9600   -8.8870 C   0  0  0  0  0  0  0  0  0  0  0  0
  -11.2490   10.4430   -8.7580 C   0  0  0  0  0  0  0  0  0  0  0  0
  -11.4280    9.8430  -10.0180 O   0  0  0  0  0  0  0  0  0  0  0  0
  -10.2970   10.0490  -10.8210 C   0  0  0  0  0  0  0  0  0  0  0  0
  -10.1500   11.5350  -11.1320 C   0  0  0  0  0  0  0  0  0  0  0  0
 27 28  1  0
 28 29  1  0
 29 30  1  0
 30 31  1  0
 31 26  1  0
 26 25  1  0
 25 24  1  0
 24  1  1  0
  1  2  2  0
  2  3  1  0
  3  4  2  0
  4  5  1  0
  5 34  1  0
 34 35  1  0
 35 36  1  0
 36 37  1  0
 37 38  1  0
 38 39  1  0
 39 40  1  0
  5  6  2  0
  4  7  1  0
  7 12  1  0
 12 14  1  0
 14 15  2  0
 15 16  1  0
 15 17  1  0
 17 18  2  0
 18 19  1  0
 19 20  2  0
 20 21  1  0
 21 22  1  0
 22 23  1  0
  7  8  1  0
  8  9  2  0
  9 10  1  0
 31 32  1  0
 32 33  1  0
 33 28  1  0
  6  1  1  0
 20 14  1  0
 10  3  1  0
 40 35  1  0
 23 19  1  0
 12 13  1  0
 10 11  1  0
M  END
> <meeko>
{"is_sidechain": false}

> <source_group>
FYN canonical

> <source_system>
FYN_saracatinib

> <source_run>
vina_seed6619_ex64

> <source_seed>
6619

> <vina_pose_rank>
1

> <vina_affinity_kcal_mol>
-9.1859999999999999

> <vina_rmsd_to_crystal_angstrom>
1.8964000000000001

> <minimizedAffinity>
-9.18958

> <CNNscore>
0.5855548978

> <CNNaffinity>
7.5377421379

> <CNN_VS>
4.4137616158

> <CNNaffinity_variance>
0.1404287815

$$$$
FYN_saracatinib__vina_seed6619_ex64__pose02


 40 45  0  0  0  0  0  0  0  0999 V2000
  -10.0230   15.9200   -7.3290 C   0  0  0  0  0  0  0  0  0  0  0  0
  -11.1320   16.6190   -7.5980 C   0  0  0  0  0  0  0  0  0  0  0  0
  -11.8590   16.3830   -8.7000 C   0  0  0  0  0  0  0  0  0  0  0  0
  -11.5260   15.4240   -9.6080 C   0  0  0  0  0  0  0  0  0  0  0  0
  -10.4040   14.6960   -9.3520 C   0  0  0  0  0  0  0  0  0  0  0  0
   -9.7000   14.9750   -8.2310 C   0  0  0  0  0  0  0  0  0  0  0  0
  -12.3520   15.2940  -10.6860 C   0  0  0  0  0  0  0  0  0  0  0  0
  -13.3650   16.0690  -10.7530 N   0  0  0  0  0  0  0  0  0  0  0  0
  -13.5860   16.9250   -9.8530 C   0  0  0  0  0  0  0  0  0  0  0  0
  -12.8820   17.1200   -8.8280 N   0  0  0  0  0  0  0  0  0  0  0  0
  -13.1140   17.8090   -8.1630 H   0  0  0  0  0  0  0  0  0  0  0  0
  -12.3650   14.5210  -11.7080 N   0  0  0  0  0  0  0  0  0  0  0  0
  -11.4070   14.4080  -12.1330 H   0  0  0  0  0  0  0  0  0  0  0  0
  -13.2220   13.8370  -12.3690 C   0  0  0  0  0  0  0  0  0  0  0  0
  -13.6690   14.2880  -13.5760 C   0  0  0  0  0  0  0  0  0  0  0  0
  -13.1420   15.7740  -14.3140 Cl  0  0  0  0  0  0  0  0  0  0  0  0
  -14.5600   13.5840  -14.3010 C   0  0  0  0  0  0  0  0  0  0  0  0
  -15.0540   12.4170  -13.8670 C   0  0  0  0  0  0  0  0  0  0  0  0
  -14.6290   11.9670  -12.6840 C   0  0  0  0  0  0  0  0  0  0  0  0
  -13.7420   12.6580  -11.9570 C   0  0  0  0  0  0  0  0  0  0  0  0
  -13.5010   12.0510  -10.9110 O   0  0  0  0  0  0  0  0  0  0  0  0
  -14.3210   10.8840  -10.8620 C   0  0  0  0  0  0  0  0  0  0  0  0
  -14.9720   10.9250  -12.1260 O   0  0  0  0  0  0  0  0  0  0  0  0
   -9.2660   16.1360   -6.2040 O   0  0  0  0  0  0  0  0  0  0  0  0
   -7.8950   15.8370   -6.3210 C   0  0  0  0  0  0  0  0  0  0  0  0
   -7.4190   14.8380   -5.2530 C   0  0  0  0  0  0  0  0  0  0  0  0
   -9.2740   13.7670   -0.0310 C   0  0  0  0  0  0  0  0  0  0  0  0
   -8.5320   13.8230   -1.2780 N   0  0  0  0  0  0  0  0  0  0  0  0
   -9.3680   13.3790   -2.3800 C   0  0  0  0  0  0  0  0  0  0  0  0
   -8.6380   13.4840   -3.7270 C   0  0  0  0  0  0  0  0  0  0  0  0
   -8.1570   14.8360   -3.9940 N   0  0  0  0  0  0  0  0  0  0  0  0
   -7.3150   15.2470   -2.8800 C   0  0  0  0  0  0  0  0  0  0  0  0
   -8.0640   15.1720   -1.5360 C   0  0  0  0  0  0  0  0  0  0  0  0
   -9.9630   13.7110  -10.2160 O   0  0  0  0  0  0  0  0  0  0  0  0
   -9.8360   12.3620   -9.8350 C   0  0  0  0  0  0  0  0  0  0  0  0
  -10.8990   11.9080   -8.8330 C   0  0  0  0  0  0  0  0  0  0  0  0
  -10.9470   10.3870   -8.7340 C   0  0  0  0  0  0  0  0  0  0  0  0
  -11.1740    9.8090   -9.9960 O   0  0  0  0  0  0  0  0  0  0  0  0
  -10.0860   10.0550  -10.8460 C   0  0  0  0  0  0  0  0  0  0  0  0
   -9.9830   11.5500  -11.1330 C   0  0  0  0  0  0  0  0  0  0  0  0
 27 28  1  0
 28 29  1  0
 29 30  1  0
 30 31  1  0
 31 26  1  0
 26 25  1  0
 25 24  1  0
 24  1  1  0
  1  2  2  0
  2  3  1  0
  3  4  2  0
  4  5  1  0
  5 34  1  0
 34 35  1  0
 35 36  1  0
 36 37  1  0
 37 38  1  0
 38 39  1  0
 39 40  1  0
  5  6  2  0
  4  7  1  0
  7 12  1  0
 12 14  1  0
 14 15  2  0
 15 16  1  0
 15 17  1  0
 17 18  2  0
 18 19  1  0
 19 20  2  0
 20 21  1  0
 21 22  1  0
 22 23  1  0
  7  8  1  0
  8  9  2  0
  9 10  1  0
 31 32  1  0
 32 33  1  0
 33 28  1  0
  6  1  1  0
 20 14  1  0
 10  3  1  0
 40 35  1  0
 23 19  1  0
 12 13  1  0
 10 11  1  0
M  END
> <meeko>
{"is_sidechain": false}

> <source_group>
FYN canonical

> <source_system>
FYN_saracatinib

> <source_run>
vina_seed6619_ex64

> <source_seed>
6619

> <vina_pose_rank>
2

> <vina_affinity_kcal_mol>
-9.0730000000000004

> <vina_rmsd_to_crystal_angstrom>
2.7946

> <minimizedAffinity>
-8.96985

> <CNNscore>
0.7422689795

> <CNNaffinity>
7.7067527771

> <CNN_VS>
5.7204833031

> <CNNaffinity_variance>
0.1486186236

$$$$
FYN_saracatinib__vina_seed6619_ex64__pose03


 40 45  0  0  0  0  0  0  0  0999 V2000
  -10.4010   15.8660   -7.6840 C   0  0  0  0  0  0  0  0  0  0  0  0
  -11.4860   16.5950   -7.9660 C   0  0  0  0  0  0  0  0  0  0  0  0
  -12.2130   16.3720   -9.0710 C   0  0  0  0  0  0  0  0  0  0  0  0
  -11.9040   15.3950   -9.9680 C   0  0  0  0  0  0  0  0  0  0  0  0
  -10.8070   14.6350   -9.6980 C   0  0  0  0  0  0  0  0  0  0  0  0
  -10.1020   14.9020   -8.5750 C   0  0  0  0  0  0  0  0  0  0  0  0
  -12.7270   15.2800  -11.0510 C   0  0  0  0  0  0  0  0  0  0  0  0
  -13.7140   16.0850  -11.1300 N   0  0  0  0  0  0  0  0  0  0  0  0
  -13.9150   16.9560  -10.2400 C   0  0  0  0  0  0  0  0  0  0  0  0
  -13.2120   17.1390   -9.2130 N   0  0  0  0  0  0  0  0  0  0  0  0
  -13.4260   17.8410   -8.5550 H   0  0  0  0  0  0  0  0  0  0  0  0
  -12.7580   14.4980  -12.0660 N   0  0  0  0  0  0  0  0  0  0  0  0
  -11.8270   14.0330  -12.2360 H   0  0  0  0  0  0  0  0  0  0  0  0
  -13.6080   14.1160  -12.9430 C   0  0  0  0  0  0  0  0  0  0  0  0
  -14.3440   12.9880  -12.7310 C   0  0  0  0  0  0  0  0  0  0  0  0
  -14.2140   11.9950  -11.3070 Cl  0  0  0  0  0  0  0  0  0  0  0  0
  -15.2570   12.5670  -13.6280 C   0  0  0  0  0  0  0  0  0  0  0  0
  -15.4760   13.2310  -14.7720 C   0  0  0  0  0  0  0  0  0  0  0  0
  -14.7570   14.3350  -14.9940 C   0  0  0  0  0  0  0  0  0  0  0  0
  -13.8490   14.7610  -14.1070 C   0  0  0  0  0  0  0  0  0  0  0  0
  -13.3140   15.7910  -14.5240 O   0  0  0  0  0  0  0  0  0  0  0  0
  -13.8290   16.0770  -15.8230 C   0  0  0  0  0  0  0  0  0  0  0  0
  -14.8170   15.0660  -15.9820 O   0  0  0  0  0  0  0  0  0  0  0  0
   -9.6440   16.0680   -6.5560 O   0  0  0  0  0  0  0  0  0  0  0  0
   -8.4020   15.4060   -6.5230 C   0  0  0  0  0  0  0  0  0  0  0  0
   -8.2410   14.5210   -5.2760 C   0  0  0  0  0  0  0  0  0  0  0  0
   -7.1570    9.5120   -7.6410 C   0  0  0  0  0  0  0  0  0  0  0  0
   -7.4020   10.9180   -7.3690 N   0  0  0  0  0  0  0  0  0  0  0  0
   -8.7070   11.0890   -6.7550 C   0  0  0  0  0  0  0  0  0  0  0  0
   -8.9770   12.5570   -6.3930 C   0  0  0  0  0  0  0  0  0  0  0  0
   -7.9500   13.1120   -5.5170 N   0  0  0  0  0  0  0  0  0  0  0  0
   -6.6580   12.9350   -6.1630 C   0  0  0  0  0  0  0  0  0  0  0  0
   -6.3780   11.4560   -6.4920 C   0  0  0  0  0  0  0  0  0  0  0  0
  -10.3910   13.6280  -10.5500 O   0  0  0  0  0  0  0  0  0  0  0  0
  -10.2990   12.2810  -10.1530 C   0  0  0  0  0  0  0  0  0  0  0  0
  -11.4230   11.8440   -9.2130 C   0  0  0  0  0  0  0  0  0  0  0  0
  -11.4910   10.3240   -9.1060 C   0  0  0  0  0  0  0  0  0  0  0  0
  -11.6470    9.7390  -10.3760 O   0  0  0  0  0  0  0  0  0  0  0  0
  -10.5090    9.9690  -11.1620 C   0  0  0  0  0  0  0  0  0  0  0  0
  -10.3750   11.4610  -11.4510 C   0  0  0  0  0  0  0  0  0  0  0  0
 27 28  1  0
 28 29  1  0
 29 30  1  0
 30 31  1  0
 31 26  1  0
 26 25  1  0
 25 24  1  0
 24  1  1  0
  1  2  2  0
  2  3  1  0
  3  4  2  0
  4  5  1  0
  5 34  1  0
 34 35  1  0
 35 36  1  0
 36 37  1  0
 37 38  1  0
 38 39  1  0
 39 40  1  0
  5  6  2  0
  4  7  1  0
  7 12  1  0
 12 14  1  0
 14 15  2  0
 15 16  1  0
 15 17  1  0
 17 18  2  0
 18 19  1  0
 19 20  2  0
 20 21  1  0
 21 22  1  0
 22 23  1  0
  7  8  1  0
  8  9  2  0
  9 10  1  0
 31 32  1  0
 32 33  1  0
 33 28  1  0
  6  1  1  0
 20 14  1  0
 10  3  1  0
 40 35  1  0
 23 19  1  0
 12 13  1  0
 10 11  1  0
M  END
> <meeko>
{"is_sidechain": false}

> <source_group>
FYN canonical

> <source_system>
FYN_saracatinib

> <source_run>
vina_seed6619_ex64

> <source_seed>
6619

> <vina_pose_rank>
3

> <vina_affinity_kcal_mol>
-8.9000000000000004

> <vina_rmsd_to_crystal_angstrom>
3.1404999999999998

> <minimizedAffinity>
-8.70713

> <CNNscore>
0.4068046808

> <CNNaffinity>
7.3740925789

> <CNN_VS>
2.9998154640

> <CNNaffinity_variance>
0.2008844167

$$$$
FYN_saracatinib__vina_seed6619_ex64__pose04


 40 45  0  0  0  0  0  0  0  0999 V2000
  -10.6830   13.0830   -7.6950 C   0  0  0  0  0  0  0  0  0  0  0  0
  -11.1340   14.3300   -7.8780 C   0  0  0  0  0  0  0  0  0  0  0  0
  -11.6720   14.7170   -9.0440 C   0  0  0  0  0  0  0  0  0  0  0  0
  -11.8000   13.8760  -10.1080 C   0  0  0  0  0  0  0  0  0  0  0  0
  -11.3540   12.6000   -9.9430 C   0  0  0  0  0  0  0  0  0  0  0  0
  -10.8130   12.2590   -8.7510 C   0  0  0  0  0  0  0  0  0  0  0  0
  -12.3610   14.4030  -11.2350 C   0  0  0  0  0  0  0  0  0  0  0  0
  -12.7250   15.6260  -11.1990 N   0  0  0  0  0  0  0  0  0  0  0  0
  -12.5630   16.3200  -10.1580 C   0  0  0  0  0  0  0  0  0  0  0  0
  -12.0540   15.9250   -9.0770 N   0  0  0  0  0  0  0  0  0  0  0  0
  -11.9580   16.5210   -8.3000 H   0  0  0  0  0  0  0  0  0  0  0  0
  -12.6440   13.9290  -12.3920 N   0  0  0  0  0  0  0  0  0  0  0  0
  -11.8120   13.4700  -12.8470 H   0  0  0  0  0  0  0  0  0  0  0  0
  -13.6640   13.8550  -13.1630 C   0  0  0  0  0  0  0  0  0  0  0  0
  -14.6150   12.9040  -12.9440 C   0  0  0  0  0  0  0  0  0  0  0  0
  -14.5500   11.7430  -11.6490 Cl  0  0  0  0  0  0  0  0  0  0  0  0
  -15.7070   12.8100  -13.7290 C   0  0  0  0  0  0  0  0  0  0  0  0
  -15.9010   13.6380  -14.7650 C   0  0  0  0  0  0  0  0  0  0  0  0
  -14.9720   14.5710  -14.9940 C   0  0  0  0  0  0  0  0  0  0  0  0
  -13.8860   14.6730  -14.2170 C   0  0  0  0  0  0  0  0  0  0  0  0
  -13.1770   15.5990  -14.6180 O   0  0  0  0  0  0  0  0  0  0  0  0
  -13.7660   16.1480  -15.7960 C   0  0  0  0  0  0  0  0  0  0  0  0
  -14.9790   15.4100  -15.8930 O   0  0  0  0  0  0  0  0  0  0  0  0
  -10.1360   12.6590   -6.5090 O   0  0  0  0  0  0  0  0  0  0  0  0
   -8.8010   12.2170   -6.5730 C   0  0  0  0  0  0  0  0  0  0  0  0
   -7.8340   13.1610   -5.8410 C   0  0  0  0  0  0  0  0  0  0  0  0
   -8.2900   18.6010   -4.4050 C   0  0  0  0  0  0  0  0  0  0  0  0
   -7.8270   17.2560   -4.7020 N   0  0  0  0  0  0  0  0  0  0  0  0
   -8.5140   16.2920   -3.8620 C   0  0  0  0  0  0  0  0  0  0  0  0
   -8.0980   14.8510   -4.1910 C   0  0  0  0  0  0  0  0  0  0  0  0
   -8.3150   14.5160   -5.5950 N   0  0  0  0  0  0  0  0  0  0  0  0
   -7.6060   15.4920   -6.4100 C   0  0  0  0  0  0  0  0  0  0  0  0
   -8.0540   16.9330   -6.0990 C   0  0  0  0  0  0  0  0  0  0  0  0
  -11.4180   11.6690  -10.9630 O   0  0  0  0  0  0  0  0  0  0  0  0
  -10.8510   10.3860  -10.8630 C   0  0  0  0  0  0  0  0  0  0  0  0
  -11.8800    9.2570  -10.9270 C   0  0  0  0  0  0  0  0  0  0  0  0
  -11.2080    7.9120  -11.1790 C   0  0  0  0  0  0  0  0  0  0  0  0
  -10.4370    7.9500  -12.3560 O   0  0  0  0  0  0  0  0  0  0  0  0
   -9.3630    8.8400  -12.2060 C   0  0  0  0  0  0  0  0  0  0  0  0
   -9.8890   10.2630  -12.0570 C   0  0  0  0  0  0  0  0  0  0  0  0
 27 28  1  0
 28 29  1  0
 29 30  1  0
 30 31  1  0
 31 26  1  0
 26 25  1  0
 25 24  1  0
 24  1  1  0
  1  2  2  0
  2  3  1  0
  3  4  2  0
  4  5  1  0
  5 34  1  0
 34 35  1  0
 35 36  1  0
 36 37  1  0
 37 38  1  0
 38 39  1  0
 39 40  1  0
  5  6  2  0
  4  7  1  0
  7 12  1  0
 12 14  1  0
 14 15  2  0
 15 16  1  0
 15 17  1  0
 17 18  2  0
 18 19  1  0
 19 20  2  0
 20 21  1  0
 21 22  1  0
 22 23  1  0
  7  8  1  0
  8  9  2  0
  9 10  1  0
 31 32  1  0
 32 33  1  0
 33 28  1  0
  6  1  1  0
 20 14  1  0
 10  3  1  0
 40 35  1  0
 23 19  1  0
 12 13  1  0
 10 11  1  0
M  END
> <meeko>
{"is_sidechain": false}

> <source_group>
FYN canonical

> <source_system>
FYN_saracatinib

> <source_run>
vina_seed6619_ex64

> <source_seed>
6619

> <vina_pose_rank>
4

> <vina_affinity_kcal_mol>
-8.8800000000000008

> <vina_rmsd_to_crystal_angstrom>
2.7902

> <minimizedAffinity>
-8.78403

> <CNNscore>
0.2607557476

> <CNNaffinity>
7.1978430748

> <CNN_VS>
1.8768789768

> <CNNaffinity_variance>
0.1944406182

$$$$
FYN_saracatinib__vina_seed6619_ex64__pose05


 40 45  0  0  0  0  0  0  0  0999 V2000
  -10.1110   15.9870   -7.4120 C   0  0  0  0  0  0  0  0  0  0  0  0
  -11.2190   16.6830   -7.6930 C   0  0  0  0  0  0  0  0  0  0  0  0
  -11.9550   16.4190   -8.7820 C   0  0  0  0  0  0  0  0  0  0  0  0
  -11.6330   15.4330   -9.6650 C   0  0  0  0  0  0  0  0  0  0  0  0
  -10.5120   14.7070   -9.3970 C   0  0  0  0  0  0  0  0  0  0  0  0
   -9.7990   15.0150   -8.2900 C   0  0  0  0  0  0  0  0  0  0  0  0
  -12.4670   15.2760  -10.7330 C   0  0  0  0  0  0  0  0  0  0  0  0
  -13.4770   16.0530  -10.8140 N   0  0  0  0  0  0  0  0  0  0  0  0
  -13.6880   16.9350   -9.9370 C   0  0  0  0  0  0  0  0  0  0  0  0
  -12.9760   17.1570   -8.9240 N   0  0  0  0  0  0  0  0  0  0  0  0
  -13.1990   17.8650   -8.2770 H   0  0  0  0  0  0  0  0  0  0  0  0
  -12.4920   14.4740  -11.7330 N   0  0  0  0  0  0  0  0  0  0  0  0
  -11.5570   14.0160  -11.8970 H   0  0  0  0  0  0  0  0  0  0  0  0
  -13.3400   14.0650  -12.6000 C   0  0  0  0  0  0  0  0  0  0  0  0
  -14.0340   12.9120  -12.3820 C   0  0  0  0  0  0  0  0  0  0  0  0
  -13.8520   11.9200  -10.9630 Cl  0  0  0  0  0  0  0  0  0  0  0  0
  -14.9440   12.4630  -13.2690 C   0  0  0  0  0  0  0  0  0  0  0  0
  -15.2000   13.1210  -14.4080 C   0  0  0  0  0  0  0  0  0  0  0  0
  -14.5220   14.2490  -14.6360 C   0  0  0  0  0  0  0  0  0  0  0  0
  -13.6180   14.7040  -13.7590 C   0  0  0  0  0  0  0  0  0  0  0  0
  -13.1240   15.7530  -14.1800 O   0  0  0  0  0  0  0  0  0  0  0  0
  -13.6650   16.0250  -15.4720 C   0  0  0  0  0  0  0  0  0  0  0  0
  -14.6190   14.9800  -15.6200 O   0  0  0  0  0  0  0  0  0  0  0  0
   -9.3440   16.2310   -6.3000 O   0  0  0  0  0  0  0  0  0  0  0  0
   -7.9500   16.1640   -6.4880 C   0  0  0  0  0  0  0  0  0  0  0  0
   -7.1740   16.2360   -5.1620 C   0  0  0  0  0  0  0  0  0  0  0  0
   -7.4400   21.7420   -3.9490 C   0  0  0  0  0  0  0  0  0  0  0  0
   -7.6770   20.3940   -4.4350 N   0  0  0  0  0  0  0  0  0  0  0  0
   -6.5590   19.9500   -5.2490 C   0  0  0  0  0  0  0  0  0  0  0  0
   -6.7430   18.5040   -5.7290 C   0  0  0  0  0  0  0  0  0  0  0  0
   -6.9400   17.5710   -4.6230 N   0  0  0  0  0  0  0  0  0  0  0  0
   -8.0720   18.0360   -3.8340 C   0  0  0  0  0  0  0  0  0  0  0  0
   -7.8650   19.4760   -3.3260 C   0  0  0  0  0  0  0  0  0  0  0  0
  -10.0820   13.6960  -10.2350 O   0  0  0  0  0  0  0  0  0  0  0  0
   -9.9710   12.3550   -9.8210 C   0  0  0  0  0  0  0  0  0  0  0  0
  -11.0470   11.9350   -8.8200 C   0  0  0  0  0  0  0  0  0  0  0  0
  -11.1090   10.4170   -8.6840 C   0  0  0  0  0  0  0  0  0  0  0  0
  -11.3280    9.8110   -9.9340 O   0  0  0  0  0  0  0  0  0  0  0  0
  -10.2300   10.0270  -10.7790 C   0  0  0  0  0  0  0  0  0  0  0  0
  -10.1110   11.5130  -11.1000 C   0  0  0  0  0  0  0  0  0  0  0  0
 27 28  1  0
 28 29  1  0
 29 30  1  0
 30 31  1  0
 31 26  1  0
 26 25  1  0
 25 24  1  0
 24  1  1  0
  1  2  2  0
  2  3  1  0
  3  4  2  0
  4  5  1  0
  5 34  1  0
 34 35  1  0
 35 36  1  0
 36 37  1  0
 37 38  1  0
 38 39  1  0
 39 40  1  0
  5  6  2  0
  4  7  1  0
  7 12  1  0
 12 14  1  0
 14 15  2  0
 15 16  1  0
 15 17  1  0
 17 18  2  0
 18 19  1  0
 19 20  2  0
 20 21  1  0
 21 22  1  0
 22 23  1  0
  7  8  1  0
  8  9  2  0
  9 10  1  0
 31 32  1  0
 32 33  1  0
 33 28  1  0
  6  1  1  0
 20 14  1  0
 10  3  1  0
 40 35  1  0
 23 19  1  0
 12 13  1  0
 10 11  1  0
M  END
> <meeko>
{"is_sidechain": false}

> <source_group>
FYN canonical

> <source_system>
FYN_saracatinib

> <source_run>
vina_seed6619_ex64

> <source_seed>
6619

> <vina_pose_rank>
5

> <vina_affinity_kcal_mol>
-8.8640000000000008

> <vina_rmsd_to_crystal_angstrom>
1.9609000000000001

> <minimizedAffinity>
-8.96318

> <CNNscore>
0.6169307232

> <CNNaffinity>
7.3938956261

> <CNN_VS>
4.5615215302

> <CNNaffinity_variance>
0.1569124758

$$$$
FYN_saracatinib__vina_seed6619_ex64__pose06


 40 45  0  0  0  0  0  0  0  0999 V2000
  -10.1200   16.0630   -7.3710 C   0  0  0  0  0  0  0  0  0  0  0  0
  -11.2410   16.7340   -7.6600 C   0  0  0  0  0  0  0  0  0  0  0  0
  -11.9520   16.4660   -8.7650 C   0  0  0  0  0  0  0  0  0  0  0  0
  -11.5910   15.5000   -9.6550 C   0  0  0  0  0  0  0  0  0  0  0  0
  -10.4570   14.7990   -9.3770 C   0  0  0  0  0  0  0  0  0  0  0  0
   -9.7690   15.1100   -8.2550 C   0  0  0  0  0  0  0  0  0  0  0  0
  -12.4040   15.3360  -10.7380 C   0  0  0  0  0  0  0  0  0  0  0  0
  -13.4320   16.0880  -10.8260 N   0  0  0  0  0  0  0  0  0  0  0  0
  -13.6800   16.9530   -9.9420 C   0  0  0  0  0  0  0  0  0  0  0  0
  -12.9890   17.1790   -8.9140 N   0  0  0  0  0  0  0  0  0  0  0  0
  -13.2410   17.8730   -8.2620 H   0  0  0  0  0  0  0  0  0  0  0  0
  -12.3920   14.5460  -11.7480 N   0  0  0  0  0  0  0  0  0  0  0  0
  -11.4180   14.3920  -12.1190 H   0  0  0  0  0  0  0  0  0  0  0  0
  -13.2380   13.8830  -12.4430 C   0  0  0  0  0  0  0  0  0  0  0  0
  -13.6380   14.3540  -13.6580 C   0  0  0  0  0  0  0  0  0  0  0  0
  -13.0650   15.8380  -14.3630 Cl  0  0  0  0  0  0  0  0  0  0  0  0
  -14.5160   13.6710  -14.4200 C   0  0  0  0  0  0  0  0  0  0  0  0
  -15.0420   12.5070  -14.0150 C   0  0  0  0  0  0  0  0  0  0  0  0
  -14.6620   12.0380  -12.8230 C   0  0  0  0  0  0  0  0  0  0  0  0
  -13.7880   12.7080  -12.0610 C   0  0  0  0  0  0  0  0  0  0  0  0
  -13.5910   12.0860  -11.0150 O   0  0  0  0  0  0  0  0  0  0  0  0
  -14.4300   10.9320  -11.0040 C   0  0  0  0  0  0  0  0  0  0  0  0
  -15.0390   10.9960  -12.2890 O   0  0  0  0  0  0  0  0  0  0  0  0
   -9.3770   16.3120   -6.2420 O   0  0  0  0  0  0  0  0  0  0  0  0
   -8.1780   15.5850   -6.1250 C   0  0  0  0  0  0  0  0  0  0  0  0
   -8.2280   14.5490   -4.9890 C   0  0  0  0  0  0  0  0  0  0  0  0
   -7.2360    9.7230   -7.7430 C   0  0  0  0  0  0  0  0  0  0  0  0
   -7.5400   11.0930   -7.3650 N   0  0  0  0  0  0  0  0  0  0  0  0
   -8.6950   11.1260   -6.4860 C   0  0  0  0  0  0  0  0  0  0  0  0
   -9.0100   12.5520   -6.0120 C   0  0  0  0  0  0  0  0  0  0  0  0
   -7.8730   13.1800   -5.3460 N   0  0  0  0  0  0  0  0  0  0  0  0
   -6.7370   13.1420   -6.2540 C   0  0  0  0  0  0  0  0  0  0  0  0
   -6.4040   11.7040   -6.6980 C   0  0  0  0  0  0  0  0  0  0  0  0
   -9.9880   13.8100  -10.2210 O   0  0  0  0  0  0  0  0  0  0  0  0
   -9.8970   12.4590   -9.8390 C   0  0  0  0  0  0  0  0  0  0  0  0
  -11.1260   11.9560   -9.0810 C   0  0  0  0  0  0  0  0  0  0  0  0
  -11.1440   10.4320   -9.0110 C   0  0  0  0  0  0  0  0  0  0  0  0
  -11.0890    9.8710  -10.3000 O   0  0  0  0  0  0  0  0  0  0  0  0
   -9.8590   10.1650  -10.9070 C   0  0  0  0  0  0  0  0  0  0  0  0
   -9.7490   11.6660  -11.1480 C   0  0  0  0  0  0  0  0  0  0  0  0
 27 28  1  0
 28 29  1  0
 29 30  1  0
 30 31  1  0
 31 26  1  0
 26 25  1  0
 25 24  1  0
 24  1  1  0
  1  2  2  0
  2  3  1  0
  3  4  2  0
  4  5  1  0
  5 34  1  0
 34 35  1  0
 35 36  1  0
 36 37  1  0
 37 38  1  0
 38 39  1  0
 39 40  1  0
  5  6  2  0
  4  7  1  0
  7 12  1  0
 12 14  1  0
 14 15  2  0
 15 16  1  0
 15 17  1  0
 17 18  2  0
 18 19  1  0
 19 20  2  0
 20 21  1  0
 21 22  1  0
 22 23  1  0
  7  8  1  0
  8  9  2  0
  9 10  1  0
 31 32  1  0
 32 33  1  0
 33 28  1  0
  6  1  1  0
 20 14  1  0
 10  3  1  0
 40 35  1  0
 23 19  1  0
 12 13  1  0
 10 11  1  0
M  END
> <meeko>
{"is_sidechain": false}

> <source_group>
FYN canonical

> <source_system>
FYN_saracatinib

> <source_run>
vina_seed6619_ex64

> <source_seed>
6619

> <vina_pose_rank>
6

> <vina_affinity_kcal_mol>
-8.8480000000000008

> <vina_rmsd_to_crystal_angstrom>
3.677

> <minimizedAffinity>
-8.45874

> <CNNscore>
0.5633724332

> <CNNaffinity>
7.3962540627

> <CNN_VS>
4.1668457985

> <CNNaffinity_variance>
0.3691997230

$$$$
FYN_saracatinib__vina_seed6619_ex64__pose07


 40 45  0  0  0  0  0  0  0  0999 V2000
  -11.5220   15.7990   -9.0950 C   0  0  0  0  0  0  0  0  0  0  0  0
  -12.5830   16.5900   -9.2920 C   0  0  0  0  0  0  0  0  0  0  0  0
  -13.4670   16.3460  -10.2700 C   0  0  0  0  0  0  0  0  0  0  0  0
  -13.3500   15.2860  -11.1180 C   0  0  0  0  0  0  0  0  0  0  0  0
  -12.2810   14.4630  -10.9320 C   0  0  0  0  0  0  0  0  0  0  0  0
  -11.4130   14.7540   -9.9370 C   0  0  0  0  0  0  0  0  0  0  0  0
  -14.3190   15.1590  -12.0710 C   0  0  0  0  0  0  0  0  0  0  0  0
  -15.2510   16.0310  -12.0860 N   0  0  0  0  0  0  0  0  0  0  0  0
  -15.2690   16.9770  -11.2510 C   0  0  0  0  0  0  0  0  0  0  0  0
  -14.4210   17.1770  -10.3430 N   0  0  0  0  0  0  0  0  0  0  0  0
  -14.4950   17.9380   -9.7220 H   0  0  0  0  0  0  0  0  0  0  0  0
  -14.5410   14.3110  -13.0060 N   0  0  0  0  0  0  0  0  0  0  0  0
  -14.4370   13.3170  -12.6730 H   0  0  0  0  0  0  0  0  0  0  0  0
  -14.8570   14.3280  -14.2470 C   0  0  0  0  0  0  0  0  0  0  0  0
  -14.0780   15.0050  -15.1380 C   0  0  0  0  0  0  0  0  0  0  0  0
  -12.6340   15.8750  -14.7040 Cl  0  0  0  0  0  0  0  0  0  0  0  0
  -14.3760   15.0300  -16.4520 C   0  0  0  0  0  0  0  0  0  0  0  0
  -15.4540   14.4010  -16.9400 C   0  0  0  0  0  0  0  0  0  0  0  0
  -16.2290   13.7400  -16.0760 C   0  0  0  0  0  0  0  0  0  0  0  0
  -15.9390   13.7070  -14.7690 C   0  0  0  0  0  0  0  0  0  0  0  0
  -16.7880   13.0420  -14.1730 O   0  0  0  0  0  0  0  0  0  0  0  0
  -17.7840   12.6290  -15.1090 C   0  0  0  0  0  0  0  0  0  0  0  0
  -17.2530   13.1120  -16.3380 O   0  0  0  0  0  0  0  0  0  0  0  0
  -10.6060   16.0220   -8.0960 O   0  0  0  0  0  0  0  0  0  0  0  0
   -9.6280   15.0240   -7.9270 C   0  0  0  0  0  0  0  0  0  0  0  0
  -10.1720   13.7890   -7.1890 C   0  0  0  0  0  0  0  0  0  0  0  0
   -9.2100    8.2790   -7.9510 C   0  0  0  0  0  0  0  0  0  0  0  0
   -9.6390    9.5810   -7.4700 N   0  0  0  0  0  0  0  0  0  0  0  0
   -8.4860   10.4210   -7.2010 C   0  0  0  0  0  0  0  0  0  0  0  0
   -8.9000   11.8300   -6.7500 C   0  0  0  0  0  0  0  0  0  0  0  0
   -9.7690   12.4900   -7.7190 N   0  0  0  0  0  0  0  0  0  0  0  0
  -10.9190   11.6300   -7.9590 C   0  0  0  0  0  0  0  0  0  0  0  0
  -10.4970   10.2300   -8.4440 C   0  0  0  0  0  0  0  0  0  0  0  0
  -12.0550   13.3690  -11.7460 O   0  0  0  0  0  0  0  0  0  0  0  0
  -12.0570   12.0460  -11.2670 C   0  0  0  0  0  0  0  0  0  0  0  0
  -13.4560   11.5120  -10.9570 C   0  0  0  0  0  0  0  0  0  0  0  0
  -13.4430    9.9950  -10.7960 C   0  0  0  0  0  0  0  0  0  0  0  0
  -12.9130    9.3740  -11.9420 O   0  0  0  0  0  0  0  0  0  0  0  0
  -11.5600    9.7070  -12.0960 C   0  0  0  0  0  0  0  0  0  0  0  0
  -11.4260   11.1990  -12.3840 C   0  0  0  0  0  0  0  0  0  0  0  0
 27 28  1  0
 28 29  1  0
 29 30  1  0
 30 31  1  0
 31 26  1  0
 26 25  1  0
 25 24  1  0
 24  1  1  0
  1  2  2  0
  2  3  1  0
  3  4  2  0
  4  5  1  0
  5 34  1  0
 34 35  1  0
 35 36  1  0
 36 37  1  0
 37 38  1  0
 38 39  1  0
 39 40  1  0
  5  6  2  0
  4  7  1  0
  7 12  1  0
 12 14  1  0
 14 15  2  0
 15 16  1  0
 15 17  1  0
 17 18  2  0
 18 19  1  0
 19 20  2  0
 20 21  1  0
 21 22  1  0
 22 23  1  0
  7  8  1  0
  8  9  2  0
  9 10  1  0
 31 32  1  0
 32 33  1  0
 33 28  1  0
  6  1  1  0
 20 14  1  0
 10  3  1  0
 40 35  1  0
 23 19  1  0
 12 13  1  0
 10 11  1  0
M  END
> <meeko>
{"is_sidechain": false}

> <source_group>
FYN canonical

> <source_system>
FYN_saracatinib

> <source_run>
vina_seed6619_ex64

> <source_seed>
6619

> <vina_pose_rank>
7

> <vina_affinity_kcal_mol>
-8.8390000000000004

> <vina_rmsd_to_crystal_angstrom>
4.4428000000000001

> <minimizedAffinity>
-8.82143

> <CNNscore>
0.7162013054

> <CNNaffinity>
7.7676181793

> <CNN_VS>
5.5631780624

> <CNNaffinity_variance>
0.4450012147

$$$$
FYN_saracatinib__vina_seed6619_ex64__pose08


 40 45  0  0  0  0  0  0  0  0999 V2000
  -10.0370   15.9420   -7.2990 C   0  0  0  0  0  0  0  0  0  0  0  0
  -11.1310   16.6580   -7.5790 C   0  0  0  0  0  0  0  0  0  0  0  0
  -11.8510   16.4340   -8.6890 C   0  0  0  0  0  0  0  0  0  0  0  0
  -11.5240   15.4690   -9.5930 C   0  0  0  0  0  0  0  0  0  0  0  0
  -10.4180   14.7220   -9.3250 C   0  0  0  0  0  0  0  0  0  0  0  0
   -9.7210   14.9900   -8.1970 C   0  0  0  0  0  0  0  0  0  0  0  0
  -12.3410   15.3520  -10.6800 C   0  0  0  0  0  0  0  0  0  0  0  0
  -13.3400   16.1430  -10.7570 N   0  0  0  0  0  0  0  0  0  0  0  0
  -13.5560   17.0040   -9.8600 C   0  0  0  0  0  0  0  0  0  0  0  0
  -12.8600   17.1880   -8.8290 N   0  0  0  0  0  0  0  0  0  0  0  0
  -13.0860   17.8810   -8.1660 H   0  0  0  0  0  0  0  0  0  0  0  0
  -12.3570   14.5770  -11.7010 N   0  0  0  0  0  0  0  0  0  0  0  0
  -11.3990   14.4600  -12.1250 H   0  0  0  0  0  0  0  0  0  0  0  0
  -13.2160   13.8970  -12.3630 C   0  0  0  0  0  0  0  0  0  0  0  0
  -13.6720   14.3580  -13.5620 C   0  0  0  0  0  0  0  0  0  0  0  0
  -13.1530   15.8520  -14.2910 Cl  0  0  0  0  0  0  0  0  0  0  0  0
  -14.5660   13.6590  -14.2890 C   0  0  0  0  0  0  0  0  0  0  0  0
  -15.0540   12.4860  -13.8620 C   0  0  0  0  0  0  0  0  0  0  0  0
  -14.6210   12.0270  -12.6850 C   0  0  0  0  0  0  0  0  0  0  0  0
  -13.7310   12.7140  -11.9570 C   0  0  0  0  0  0  0  0  0  0  0  0
  -13.4820   12.0980  -10.9190 O   0  0  0  0  0  0  0  0  0  0  0  0
  -14.2990   10.9290  -10.8750 C   0  0  0  0  0  0  0  0  0  0  0  0
  -14.9580   10.9790  -12.1350 O   0  0  0  0  0  0  0  0  0  0  0  0
   -9.2880   16.1450   -6.1660 O   0  0  0  0  0  0  0  0  0  0  0  0
   -8.2960   17.1400   -6.2580 C   0  0  0  0  0  0  0  0  0  0  0  0
   -7.4290   17.2230   -4.9900 C   0  0  0  0  0  0  0  0  0  0  0  0
   -7.1850   22.8070   -4.2030 C   0  0  0  0  0  0  0  0  0  0  0  0
   -7.5080   21.4580   -4.6340 N   0  0  0  0  0  0  0  0  0  0  0  0
   -6.3370   20.8200   -5.2080 C   0  0  0  0  0  0  0  0  0  0  0  0
   -6.6220   19.3680   -5.6190 C   0  0  0  0  0  0  0  0  0  0  0  0
   -7.1180   18.5640   -4.5060 N   0  0  0  0  0  0  0  0  0  0  0  0
   -8.2960   19.2220   -3.9600 C   0  0  0  0  0  0  0  0  0  0  0  0
   -7.9950   20.6660   -3.5190 C   0  0  0  0  0  0  0  0  0  0  0  0
   -9.9850   13.7280  -10.1830 O   0  0  0  0  0  0  0  0  0  0  0  0
   -9.8440   12.3850   -9.7880 C   0  0  0  0  0  0  0  0  0  0  0  0
  -10.9660   11.8980   -8.8710 C   0  0  0  0  0  0  0  0  0  0  0  0
  -10.9730   10.3770   -8.7690 C   0  0  0  0  0  0  0  0  0  0  0  0
  -11.0800    9.7900  -10.0430 O   0  0  0  0  0  0  0  0  0  0  0  0
   -9.9370   10.0700  -10.8070 C   0  0  0  0  0  0  0  0  0  0  0  0
   -9.8610   11.5670  -11.0900 C   0  0  0  0  0  0  0  0  0  0  0  0
 27 28  1  0
 28 29  1  0
 29 30  1  0
 30 31  1  0
 31 26  1  0
 26 25  1  0
 25 24  1  0
 24  1  1  0
  1  2  2  0
  2  3  1  0
  3  4  2  0
  4  5  1  0
  5 34  1  0
 34 35  1  0
 35 36  1  0
 36 37  1  0
 37 38  1  0
 38 39  1  0
 39 40  1  0
  5  6  2  0
  4  7  1  0
  7 12  1  0
 12 14  1  0
 14 15  2  0
 15 16  1  0
 15 17  1  0
 17 18  2  0
 18 19  1  0
 19 20  2  0
 20 21  1  0
 21 22  1  0
 22 23  1  0
  7  8  1  0
  8  9  2  0
  9 10  1  0
 31 32  1  0
 32 33  1  0
 33 28  1  0
  6  1  1  0
 20 14  1  0
 10  3  1  0
 40 35  1  0
 23 19  1  0
 12 13  1  0
 10 11  1  0
M  END
> <meeko>
{"is_sidechain": false}

> <source_group>
FYN canonical

> <source_system>
FYN_saracatinib

> <source_run>
vina_seed6619_ex64

> <source_seed>
6619

> <vina_pose_rank>
8

> <vina_affinity_kcal_mol>
-8.7609999999999992

> <vina_rmsd_to_crystal_angstrom>
2.9900000000000002

> <minimizedAffinity>
-8.77863

> <CNNscore>
0.8563992381

> <CNNaffinity>
7.7763476372

> <CNN_VS>
6.6596579552

> <CNNaffinity_variance>
0.3418773115

$$$$
FYN_saracatinib__vina_seed6619_ex64__pose09


 40 45  0  0  0  0  0  0  0  0999 V2000
  -10.6410   13.2140   -7.6060 C   0  0  0  0  0  0  0  0  0  0  0  0
  -11.1160   14.4490   -7.8010 C   0  0  0  0  0  0  0  0  0  0  0  0
  -11.6690   14.8110   -8.9680 C   0  0  0  0  0  0  0  0  0  0  0  0
  -11.7890   13.9560  -10.0210 C   0  0  0  0  0  0  0  0  0  0  0  0
  -11.3180   12.6900   -9.8430 C   0  0  0  0  0  0  0  0  0  0  0  0
  -10.7630   12.3740   -8.6510 C   0  0  0  0  0  0  0  0  0  0  0  0
  -12.3680   14.4570  -11.1500 C   0  0  0  0  0  0  0  0  0  0  0  0
  -12.7540   15.6740  -11.1270 N   0  0  0  0  0  0  0  0  0  0  0  0
  -12.5980   16.3840  -10.0950 C   0  0  0  0  0  0  0  0  0  0  0  0
  -12.0740   16.0120   -9.0140 N   0  0  0  0  0  0  0  0  0  0  0  0
  -11.9840   16.6200   -8.2440 H   0  0  0  0  0  0  0  0  0  0  0  0
  -12.6500   13.9640  -12.2990 N   0  0  0  0  0  0  0  0  0  0  0  0
  -11.8200   13.4870  -12.7410 H   0  0  0  0  0  0  0  0  0  0  0  0
  -13.6660   13.8850  -13.0740 C   0  0  0  0  0  0  0  0  0  0  0  0
  -14.6190   12.9360  -12.8520 C   0  0  0  0  0  0  0  0  0  0  0  0
  -14.5600   11.7850  -11.5470 Cl  0  0  0  0  0  0  0  0  0  0  0  0
  -15.7070   12.8370  -13.6400 C   0  0  0  0  0  0  0  0  0  0  0  0
  -15.8970   13.6570  -14.6830 C   0  0  0  0  0  0  0  0  0  0  0  0
  -14.9670   14.5880  -14.9150 C   0  0  0  0  0  0  0  0  0  0  0  0
  -13.8840   14.6950  -14.1350 C   0  0  0  0  0  0  0  0  0  0  0  0
  -13.1730   15.6180  -14.5390 O   0  0  0  0  0  0  0  0  0  0  0  0
  -13.7570   16.1580  -15.7230 C   0  0  0  0  0  0  0  0  0  0  0  0
  -14.9690   15.4200  -15.8200 O   0  0  0  0  0  0  0  0  0  0  0  0
  -10.0780   12.8150   -6.4190 O   0  0  0  0  0  0  0  0  0  0  0  0
   -8.6710   12.8170   -6.3760 C   0  0  0  0  0  0  0  0  0  0  0  0
   -8.1160   13.8120   -5.3430 C   0  0  0  0  0  0  0  0  0  0  0  0
   -7.1480   13.3060    0.1940 C   0  0  0  0  0  0  0  0  0  0  0  0
   -7.2810   13.7700   -1.1760 N   0  0  0  0  0  0  0  0  0  0  0  0
   -6.4800   12.9460   -2.0640 C   0  0  0  0  0  0  0  0  0  0  0  0
   -6.6430   13.3660   -3.5320 C   0  0  0  0  0  0  0  0  0  0  0  0
   -8.0370   13.3380   -3.9660 N   0  0  0  0  0  0  0  0  0  0  0  0
   -8.8100   14.1790   -3.0650 C   0  0  0  0  0  0  0  0  0  0  0  0
   -8.6690   13.7310   -1.5980 C   0  0  0  0  0  0  0  0  0  0  0  0
  -11.3720   11.7450  -10.8510 O   0  0  0  0  0  0  0  0  0  0  0  0
  -10.8080   10.4620  -10.7270 C   0  0  0  0  0  0  0  0  0  0  0  0
  -11.8480    9.3430  -10.6530 C   0  0  0  0  0  0  0  0  0  0  0  0
  -11.2060    7.9790  -10.8840 C   0  0  0  0  0  0  0  0  0  0  0  0
  -10.5260    7.9480  -12.1160 O   0  0  0  0  0  0  0  0  0  0  0  0
   -9.4380    8.8320  -12.0940 C   0  0  0  0  0  0  0  0  0  0  0  0
   -9.9410   10.2670  -11.9810 C   0  0  0  0  0  0  0  0  0  0  0  0
 27 28  1  0
 28 29  1  0
 29 30  1  0
 30 31  1  0
 31 26  1  0
 26 25  1  0
 25 24  1  0
 24  1  1  0
  1  2  2  0
  2  3  1  0
  3  4  2  0
  4  5  1  0
  5 34  1  0
 34 35  1  0
 35 36  1  0
 36 37  1  0
 37 38  1  0
 38 39  1  0
 39 40  1  0
  5  6  2  0
  4  7  1  0
  7 12  1  0
 12 14  1  0
 14 15  2  0
 15 16  1  0
 15 17  1  0
 17 18  2  0
 18 19  1  0
 19 20  2  0
 20 21  1  0
 21 22  1  0
 22 23  1  0
  7  8  1  0
  8  9  2  0
  9 10  1  0
 31 32  1  0
 32 33  1  0
 33 28  1  0
  6  1  1  0
 20 14  1  0
 10  3  1  0
 40 35  1  0
 23 19  1  0
 12 13  1  0
 10 11  1  0
M  END
> <meeko>
{"is_sidechain": false}

> <source_group>
FYN canonical

> <source_system>
FYN_saracatinib

> <source_run>
vina_seed6619_ex64

> <source_seed>
6619

> <vina_pose_rank>
9

> <vina_affinity_kcal_mol>
-8.7330000000000005

> <vina_rmsd_to_crystal_angstrom>
2.7061999999999999

> <minimizedAffinity>
-8.80714

> <CNNscore>
0.3097806573

> <CNNaffinity>
7.1838030815

> <CNN_VS>
2.2254033089

> <CNNaffinity_variance>
0.1849095374

$$$$
FYN_saracatinib__vina_seed6619_ex64__pose10


 40 45  0  0  0  0  0  0  0  0999 V2000
  -10.4180   13.8940   -7.5720 C   0  0  0  0  0  0  0  0  0  0  0  0
  -11.2630   14.9310   -7.5740 C   0  0  0  0  0  0  0  0  0  0  0  0
  -11.8980   15.3160   -8.6900 C   0  0  0  0  0  0  0  0  0  0  0  0
  -11.7350   14.6810   -9.8840 C   0  0  0  0  0  0  0  0  0  0  0  0
  -10.8840   13.6170   -9.9050 C   0  0  0  0  0  0  0  0  0  0  0  0
  -10.2610   13.2720   -8.7560 C   0  0  0  0  0  0  0  0  0  0  0  0
  -12.4390   15.1800  -10.9410 C   0  0  0  0  0  0  0  0  0  0  0  0
  -13.1940   16.1860  -10.7260 N   0  0  0  0  0  0  0  0  0  0  0  0
  -13.2780   16.7000   -9.5760 C   0  0  0  0  0  0  0  0  0  0  0  0
  -12.6660   16.3140   -8.5470 N   0  0  0  0  0  0  0  0  0  0  0  0
  -12.7780   16.7620   -7.6770 H   0  0  0  0  0  0  0  0  0  0  0  0
  -12.5450   14.8500  -12.1750 N   0  0  0  0  0  0  0  0  0  0  0  0
  -11.8090   15.3110  -12.7730 H   0  0  0  0  0  0  0  0  0  0  0  0
  -13.2990   14.1110  -12.8980 C   0  0  0  0  0  0  0  0  0  0  0  0
  -13.5910   14.4810  -14.1780 C   0  0  0  0  0  0  0  0  0  0  0  0
  -12.9910   15.9310  -14.9310 Cl  0  0  0  0  0  0  0  0  0  0  0  0
  -14.3700   13.7170  -14.9680 C   0  0  0  0  0  0  0  0  0  0  0  0
  -14.9020   12.5670  -14.5310 C   0  0  0  0  0  0  0  0  0  0  0  0
  -14.6290   12.1960  -13.2770 C   0  0  0  0  0  0  0  0  0  0  0  0
  -13.8530   12.9480  -12.4850 C   0  0  0  0  0  0  0  0  0  0  0  0
  -13.7430   12.4080  -11.3820 O   0  0  0  0  0  0  0  0  0  0  0  0
  -14.5470   11.2300  -11.3680 C   0  0  0  0  0  0  0  0  0  0  0  0
  -15.0280   11.1830  -12.7070 O   0  0  0  0  0  0  0  0  0  0  0  0
   -9.7610   13.4750   -6.4410 O   0  0  0  0  0  0  0  0  0  0  0  0
   -8.5750   14.1660   -6.1290 C   0  0  0  0  0  0  0  0  0  0  0  0
   -8.6180   14.8030   -4.7300 C   0  0  0  0  0  0  0  0  0  0  0  0
   -6.6890   20.0620   -5.4240 C   0  0  0  0  0  0  0  0  0  0  0  0
   -7.3930   18.7950   -5.5230 N   0  0  0  0  0  0  0  0  0  0  0  0
   -6.4500   17.7120   -5.7390 C   0  0  0  0  0  0  0  0  0  0  0  0
   -7.1510   16.3470   -5.7850 C   0  0  0  0  0  0  0  0  0  0  0  0
   -7.9310   16.0810   -4.5800 N   0  0  0  0  0  0  0  0  0  0  0  0
   -8.8730   17.1760   -4.3970 C   0  0  0  0  0  0  0  0  0  0  0  0
   -8.1600   18.5390   -4.3170 C   0  0  0  0  0  0  0  0  0  0  0  0
  -10.6290   12.9120  -11.0670 O   0  0  0  0  0  0  0  0  0  0  0  0
  -10.1180   11.6010  -11.0680 C   0  0  0  0  0  0  0  0  0  0  0  0
  -10.7240   10.7110  -12.1540 C   0  0  0  0  0  0  0  0  0  0  0  0
   -9.8980    9.4450  -12.3520 C   0  0  0  0  0  0  0  0  0  0  0  0
   -8.5610    9.7600  -12.6550 O   0  0  0  0  0  0  0  0  0  0  0  0
   -7.9500   10.3920  -11.5620 C   0  0  0  0  0  0  0  0  0  0  0  0
   -8.6070   11.7460  -11.3160 C   0  0  0  0  0  0  0  0  0  0  0  0
 27 28  1  0
 28 29  1  0
 29 30  1  0
 30 31  1  0
 31 26  1  0
 26 25  1  0
 25 24  1  0
 24  1  1  0
  1  2  2  0
  2  3  1  0
  3  4  2  0
  4  5  1  0
  5 34  1  0
 34 35  1  0
 35 36  1  0
 36 37  1  0
 37 38  1  0
 38 39  1  0
 39 40  1  0
  5  6  2  0
  4  7  1  0
  7 12  1  0
 12 14  1  0
 14 15  2  0
 15 16  1  0
 15 17  1  0
 17 18  2  0
 18 19  1  0
 19 20  2  0
 20 21  1  0
 21 22  1  0
 22 23  1  0
  7  8  1  0
  8  9  2  0
  9 10  1  0
 31 32  1  0
 32 33  1  0
 33 28  1  0
  6  1  1  0
 20 14  1  0
 10  3  1  0
 40 35  1  0
 23 19  1  0
 12 13  1  0
 10 11  1  0
M  END
> <meeko>
{"is_sidechain": false}

> <source_group>
FYN canonical

> <source_system>
FYN_saracatinib

> <source_run>
vina_seed6619_ex64

> <source_seed>
6619

> <vina_pose_rank>
10

> <vina_affinity_kcal_mol>
-8.4819999999999993

> <vina_rmsd_to_crystal_angstrom>
2.9832000000000001

> <minimizedAffinity>
-8.56329

> <CNNscore>
0.8357069492

> <CNNaffinity>
7.9849677086

> <CNN_VS>
6.6730928421

> <CNNaffinity_variance>
0.0306380838

$$$$
