CHRNA7_encenicline__hybrid_A_face_seed20260825_ex32__pose01
     RDKit          3D

 38 41  0  0  0  0  0  0  0  0999 V2000
  142.0340  140.3940   90.9120 O   0  0  0  0  0  0  0  0  0  0  0  0
  142.1600  139.2330   90.7140 C   0  0  0  0  0  0  0  0  0  0  0  0
  141.0080  138.4370   90.3410 N   0  0  0  0  0  0  0  0  0  0  0  0
  139.6830  139.0870   90.2160 C   0  0  1  0  0  0  0  0  0  0  0  0
  139.3910  139.4040   88.7360 C   0  0  0  0  0  0  0  0  0  0  0  0
  138.2170  138.7790   88.3070 N   0  0  0  0  0  0  0  0  0  0  0  0
  137.1500  139.1780   89.0840 C   0  0  0  0  0  0  0  0  0  0  0  0
  137.3660  138.8330   90.5280 C   0  0  0  0  0  0  0  0  0  0  0  0
  138.6390  138.1920   90.7060 C   0  0  0  0  0  0  0  0  0  0  0  0
  138.6590  136.9760   89.8970 C   0  0  0  0  0  0  0  0  0  0  0  0
  138.3640  137.3730   88.4000 C   0  0  0  0  0  0  0  0  0  0  0  0
  143.5430  138.5870   90.8510 C   0  0  0  0  0  0  0  0  0  0  0  0
  143.7840  137.2790   91.1020 C   0  0  0  0  0  0  0  0  0  0  0  0
  145.1400  136.8180   91.2010 C   0  0  0  0  0  0  0  0  0  0  0  0
  145.5500  135.5340   91.4460 C   0  0  0  0  0  0  0  0  0  0  0  0
  146.9110  135.2370   91.5160 C   0  0  0  0  0  0  0  0  0  0  0  0
  147.8630  136.2550   91.3340 C   0  0  0  0  0  0  0  0  0  0  0  0
  147.4510  137.5670   91.0810 C   0  0  0  0  0  0  0  0  0  0  0  0
  148.6620  138.8540   90.8490 Cl  0  0  0  0  0  0  0  0  0  0  0  0
  146.1100  137.8620   91.0130 C   0  0  0  0  0  0  0  0  0  0  0  0
  145.1040  139.3480   90.7220 S   0  0  0  0  0  0  0  0  0  0  0  0
  141.1040  137.4720   90.1730 H   0  0  0  0  0  0  0  0  0  0  0  0
  139.6939  140.0142   90.8077 H   0  0  0  0  0  0  0  0  0  0  0  0
  139.2823  140.4921   88.6169 H   0  0  0  0  0  0  0  0  0  0  0  0
  140.2274  139.0287   88.1280 H   0  0  0  0  0  0  0  0  0  0  0  0
  137.0266  140.2671   88.9907 H   0  0  0  0  0  0  0  0  0  0  0  0
  136.2499  138.6520   88.7330 H   0  0  0  0  0  0  0  0  0  0  0  0
  137.3371  139.7540   91.1287 H   0  0  0  0  0  0  0  0  0  0  0  0
  136.5719  138.1443   90.8524 H   0  0  0  0  0  0  0  0  0  0  0  0
  138.8039  137.9544   91.7673 H   0  0  0  0  0  0  0  0  0  0  0  0
  139.6475  136.4985   89.9674 H   0  0  0  0  0  0  0  0  0  0  0  0
  137.8989  136.2677   90.2583 H   0  0  0  0  0  0  0  0  0  0  0  0
  139.1996  137.0483   87.7626 H   0  0  0  0  0  0  0  0  0  0  0  0
  137.4375  136.8835   88.0655 H   0  0  0  0  0  0  0  0  0  0  0  0
  142.9481  136.5753   91.2290 H   0  0  0  0  0  0  0  0  0  0  0  0
  144.8054  134.7368   91.5876 H   0  0  0  0  0  0  0  0  0  0  0  0
  147.2394  134.2059   91.7137 H   0  0  0  0  0  0  0  0  0  0  0  0
  148.9358  136.0187   91.3908 H   0  0  0  0  0  0  0  0  0  0  0  0
  1  2  2  0
  2  3  1  0
  3  4  1  0
  4  5  1  0
  5  6  1  0
  6  7  1  0
  7  8  1  0
  8  9  1  0
  9 10  1  0
 10 11  1  0
  2 12  1  0
 12 13  2  0
 13 14  1  0
 14 15  2  0
 15 16  1  0
 16 17  2  0
 17 18  1  0
 18 19  1  0
 18 20  2  0
 20 21  1  0
  9  4  1  0
 21 12  1  0
 11  6  1  0
 20 14  1  0
  3 22  1  0
  4 23  1  1
  5 24  1  0
  5 25  1  0
  7 26  1  0
  7 27  1  0
  8 28  1  0
  8 29  1  0
  9 30  1  0
 10 31  1  0
 10 32  1  0
 11 33  1  0
 11 34  1  0
 13 35  1  0
 15 36  1  0
 16 37  1  0
 17 38  1  0
M  END
>  <meeko>  (1)
{"is_sidechain": false}

>  <source_group>  (1)
CHRFAM7A at A face

>  <source_system>  (1)
CHRNA7_encenicline

>  <source_run>  (1)
hybrid_A_face_seed20260825_ex32

>  <source_seed>  (1)
20260825

>  <vina_pose_rank>  (1)
1

>  <vina_affinity_kcal_mol>  (1)
-7.5430000000000001

>  <vina_rmsd_to_crystal_angstrom>  (1)
1.9981

$$$$
CHRNA7_encenicline__hybrid_A_face_seed20260825_ex32__pose02
     RDKit          3D

 38 41  0  0  0  0  0  0  0  0999 V2000
  142.3960  138.1280   90.8720 O   0  0  0  0  0  0  0  0  0  0  0  0
  142.4270  139.1860   90.3420 C   0  0  0  0  0  0  0  0  0  0  0  0
  141.1910  139.8180   89.9220 N   0  0  0  0  0  0  0  0  0  0  0  0
  139.9020  139.1280   90.1610 C   0  0  1  0  0  0  0  0  0  0  0  0
  138.8180  140.1560   90.5390 C   0  0  0  0  0  0  0  0  0  0  0  0
  137.7430  140.1090   89.6470 N   0  0  0  0  0  0  0  0  0  0  0  0
  137.1940  138.8460   89.6230 C   0  0  0  0  0  0  0  0  0  0  0  0
  138.2020  137.8180   89.2010 C   0  0  0  0  0  0  0  0  0  0  0  0
  139.4730  138.4370   88.9490 C   0  0  0  0  0  0  0  0  0  0  0  0
  139.3010  139.4290   87.8910 C   0  0  0  0  0  0  0  0  0  0  0  0
  138.1900  140.4490   88.3460 C   0  0  0  0  0  0  0  0  0  0  0  0
  143.7740  139.8780   90.1070 C   0  0  0  0  0  0  0  0  0  0  0  0
  144.3250  140.1500   88.9020 C   0  0  0  0  0  0  0  0  0  0  0  0
  145.5990  140.8080   88.8400 C   0  0  0  0  0  0  0  0  0  0  0  0
  146.2870  141.1530   87.7070 C   0  0  0  0  0  0  0  0  0  0  0  0
  147.5230  141.7910   87.8070 C   0  0  0  0  0  0  0  0  0  0  0  0
  148.0640  142.0800   89.0720 C   0  0  0  0  0  0  0  0  0  0  0  0
  147.3670  141.7310   90.2320 C   0  0  0  0  0  0  0  0  0  0  0  0
  148.0570  142.1020   91.8340 Cl  0  0  0  0  0  0  0  0  0  0  0  0
  146.1490  141.1020   90.1360 C   0  0  0  0  0  0  0  0  0  0  0  0
  144.9000  140.4690   91.2960 S   0  0  0  0  0  0  0  0  0  0  0  0
  141.2070  140.6980   89.4830 H   0  0  0  0  0  0  0  0  0  0  0  0
  140.0414  138.4056   90.9787 H   0  0  0  0  0  0  0  0  0  0  0  0
  138.4527  139.9357   91.5529 H   0  0  0  0  0  0  0  0  0  0  0  0
  139.2619  141.1615   90.4963 H   0  0  0  0  0  0  0  0  0  0  0  0
  136.8279  138.5959   90.6297 H   0  0  0  0  0  0  0  0  0  0  0  0
  136.3694  138.8411   88.8949 H   0  0  0  0  0  0  0  0  0  0  0  0
  138.3148  137.0713   90.0008 H   0  0  0  0  0  0  0  0  0  0  0  0
  137.8520  137.3331   88.2777 H   0  0  0  0  0  0  0  0  0  0  0  0
  140.2157  137.6811   88.6542 H   0  0  0  0  0  0  0  0  0  0  0  0
  140.2486  139.9616   87.7227 H   0  0  0  0  0  0  0  0  0  0  0  0
  139.0025  138.9362   86.9540 H   0  0  0  0  0  0  0  0  0  0  0  0
  138.6078  141.4665   88.3558 H   0  0  0  0  0  0  0  0  0  0  0  0
  137.3438  140.4077   87.6444 H   0  0  0  0  0  0  0  0  0  0  0  0
  143.8007  139.8690   87.9767 H   0  0  0  0  0  0  0  0  0  0  0  0
  145.8641  140.9266   86.7171 H   0  0  0  0  0  0  0  0  0  0  0  0
  148.0744  142.0680   86.8964 H   0  0  0  0  0  0  0  0  0  0  0  0
  149.0394  142.5826   89.1491 H   0  0  0  0  0  0  0  0  0  0  0  0
  1  2  2  0
  2  3  1  0
  3  4  1  0
  4  5  1  0
  5  6  1  0
  6  7  1  0
  7  8  1  0
  8  9  1  0
  9 10  1  0
 10 11  1  0
  2 12  1  0
 12 13  2  0
 13 14  1  0
 14 15  2  0
 15 16  1  0
 16 17  2  0
 17 18  1  0
 18 19  1  0
 18 20  2  0
 20 21  1  0
  9  4  1  0
 21 12  1  0
 11  6  1  0
 20 14  1  0
  3 22  1  0
  4 23  1  1
  5 24  1  0
  5 25  1  0
  7 26  1  0
  7 27  1  0
  8 28  1  0
  8 29  1  0
  9 30  1  0
 10 31  1  0
 10 32  1  0
 11 33  1  0
 11 34  1  0
 13 35  1  0
 15 36  1  0
 16 37  1  0
 17 38  1  0
M  END
>  <meeko>  (2)
{"is_sidechain": false}

>  <source_group>  (2)
CHRFAM7A at A face

>  <source_system>  (2)
CHRNA7_encenicline

>  <source_run>  (2)
hybrid_A_face_seed20260825_ex32

>  <source_seed>  (2)
20260825

>  <vina_pose_rank>  (2)
2

>  <vina_affinity_kcal_mol>  (2)
-7.5010000000000003

>  <vina_rmsd_to_crystal_angstrom>  (2)
4.4892000000000003

$$$$
CHRNA7_encenicline__hybrid_A_face_seed20260825_ex32__pose03
     RDKit          3D

 38 41  0  0  0  0  0  0  0  0999 V2000
  142.8070  138.7990   91.0970 O   0  0  0  0  0  0  0  0  0  0  0  0
  142.6700  139.4930   90.1470 C   0  0  0  0  0  0  0  0  0  0  0  0
  141.3360  139.8160   89.6790 N   0  0  0  0  0  0  0  0  0  0  0  0
  140.1600  139.2700   90.3940 C   0  0  1  0  0  0  0  0  0  0  0  0
  139.0850  140.3640   90.5490 C   0  0  0  0  0  0  0  0  0  0  0  0
  137.8800  139.9770   89.9550 N   0  0  0  0  0  0  0  0  0  0  0  0
  137.4270  138.8010   90.5130 C   0  0  0  0  0  0  0  0  0  0  0  0
  138.4190  137.6910   90.3320 C   0  0  0  0  0  0  0  0  0  0  0  0
  139.5810  138.1660   89.6350 C   0  0  0  0  0  0  0  0  0  0  0  0
  139.1610  138.6740   88.3310 C   0  0  0  0  0  0  0  0  0  0  0  0
  138.0730  139.7910   88.5640 C   0  0  0  0  0  0  0  0  0  0  0  0
  143.9050  140.0440   89.4260 C   0  0  0  0  0  0  0  0  0  0  0  0
  144.9420  140.6860   90.0120 C   0  0  0  0  0  0  0  0  0  0  0  0
  146.0350  141.1460   89.2030 C   0  0  0  0  0  0  0  0  0  0  0  0
  147.1530  141.8050   89.6390 C   0  0  0  0  0  0  0  0  0  0  0  0
  148.1350  142.1930   88.7270 C   0  0  0  0  0  0  0  0  0  0  0  0
  147.9780  141.9070   87.3600 C   0  0  0  0  0  0  0  0  0  0  0  0
  146.8390  141.2320   86.9080 C   0  0  0  0  0  0  0  0  0  0  0  0
  146.6450  140.8700   85.1740 Cl  0  0  0  0  0  0  0  0  0  0  0  0
  145.8700  140.8500   87.8050 C   0  0  0  0  0  0  0  0  0  0  0  0
  144.2720  139.9860   87.7260 S   0  0  0  0  0  0  0  0  0  0  0  0
  141.2130  140.3940   88.8920 H   0  0  0  0  0  0  0  0  0  0  0  0
  140.4885  138.9172   91.3827 H   0  0  0  0  0  0  0  0  0  0  0  0
  138.9138  140.5496   91.6196 H   0  0  0  0  0  0  0  0  0  0  0  0
  139.4423  141.2765   90.0492 H   0  0  0  0  0  0  0  0  0  0  0  0
  137.2574  138.9574   91.5885 H   0  0  0  0  0  0  0  0  0  0  0  0
  136.4926  138.5157   90.0075 H   0  0  0  0  0  0  0  0  0  0  0  0
  138.7194  137.3090   91.3188 H   0  0  0  0  0  0  0  0  0  0  0  0
  137.9524  136.8886   89.7417 H   0  0  0  0  0  0  0  0  0  0  0  0
  140.3149  137.3552   89.5165 H   0  0  0  0  0  0  0  0  0  0  0  0
  140.0256  139.1011   87.8018 H   0  0  0  0  0  0  0  0  0  0  0  0
  138.7436  137.8584   87.7222 H   0  0  0  0  0  0  0  0  0  0  0  0
  138.4126  140.7342   88.1113 H   0  0  0  0  0  0  0  0  0  0  0  0
  137.1247  139.4828   88.0995 H   0  0  0  0  0  0  0  0  0  0  0  0
  144.9474  140.8540   91.0991 H   0  0  0  0  0  0  0  0  0  0  0  0
  147.2771  142.0287   90.7088 H   0  0  0  0  0  0  0  0  0  0  0  0
  149.0326  142.7231   89.0781 H   0  0  0  0  0  0  0  0  0  0  0  0
  148.7533  142.2149   86.6430 H   0  0  0  0  0  0  0  0  0  0  0  0
  1  2  2  0
  2  3  1  0
  3  4  1  0
  4  5  1  0
  5  6  1  0
  6  7  1  0
  7  8  1  0
  8  9  1  0
  9 10  1  0
 10 11  1  0
  2 12  1  0
 12 13  2  0
 13 14  1  0
 14 15  2  0
 15 16  1  0
 16 17  2  0
 17 18  1  0
 18 19  1  0
 18 20  2  0
 20 21  1  0
  9  4  1  0
 21 12  1  0
 11  6  1  0
 20 14  1  0
  3 22  1  0
  4 23  1  1
  5 24  1  0
  5 25  1  0
  7 26  1  0
  7 27  1  0
  8 28  1  0
  8 29  1  0
  9 30  1  0
 10 31  1  0
 10 32  1  0
 11 33  1  0
 11 34  1  0
 13 35  1  0
 15 36  1  0
 16 37  1  0
 17 38  1  0
M  END
>  <meeko>  (3)
{"is_sidechain": false}

>  <source_group>  (3)
CHRFAM7A at A face

>  <source_system>  (3)
CHRNA7_encenicline

>  <source_run>  (3)
hybrid_A_face_seed20260825_ex32

>  <source_seed>  (3)
20260825

>  <vina_pose_rank>  (3)
3

>  <vina_affinity_kcal_mol>  (3)
-7.4390000000000001

>  <vina_rmsd_to_crystal_angstrom>  (3)
4.9166999999999996

$$$$
CHRNA7_encenicline__hybrid_A_face_seed20260825_ex32__pose04
     RDKit          3D

 38 41  0  0  0  0  0  0  0  0999 V2000
  141.7010  140.8950   91.3990 O   0  0  0  0  0  0  0  0  0  0  0  0
  142.0670  139.9570   90.7740 C   0  0  0  0  0  0  0  0  0  0  0  0
  141.0930  139.0940   90.1350 N   0  0  0  0  0  0  0  0  0  0  0  0
  139.6500  139.3940   90.2760 C   0  0  1  0  0  0  0  0  0  0  0  0
  139.0670  139.8240   88.9150 C   0  0  0  0  0  0  0  0  0  0  0  0
  138.0210  138.9840   88.5240 N   0  0  0  0  0  0  0  0  0  0  0  0
  137.0240  138.9870   89.4750 C   0  0  0  0  0  0  0  0  0  0  0  0
  137.5330  138.5160   90.8050 C   0  0  0  0  0  0  0  0  0  0  0  0
  138.9330  138.2030   90.7230 C   0  0  0  0  0  0  0  0  0  0  0  0
  139.1130  137.1550   89.7220 C   0  0  0  0  0  0  0  0  0  0  0  0
  138.5060  137.6640   88.3590 C   0  0  0  0  0  0  0  0  0  0  0  0
  143.5670  139.6700   90.6450 C   0  0  0  0  0  0  0  0  0  0  0  0
  144.4270  140.3120   89.8210 C   0  0  0  0  0  0  0  0  0  0  0  0
  145.8110  139.9330   89.8120 C   0  0  0  0  0  0  0  0  0  0  0  0
  146.8030  140.4810   89.0430 C   0  0  0  0  0  0  0  0  0  0  0  0
  148.1100  140.0030   89.1440 C   0  0  0  0  0  0  0  0  0  0  0  0
  148.4090  138.9570   90.0340 C   0  0  0  0  0  0  0  0  0  0  0  0
  147.4010  138.3940   90.8220 C   0  0  0  0  0  0  0  0  0  0  0  0
  147.7860  137.0690   91.9520 Cl  0  0  0  0  0  0  0  0  0  0  0  0
  146.1130  138.8630   90.7250 C   0  0  0  0  0  0  0  0  0  0  0  0
  144.5120  138.4840   91.4980 S   0  0  0  0  0  0  0  0  0  0  0  0
  141.3880  138.3140   89.6120 H   0  0  0  0  0  0  0  0  0  0  0  0
  139.5345  140.2036   91.0117 H   0  0  0  0  0  0  0  0  0  0  0  0
  138.6888  140.8537   88.9961 H   0  0  0  0  0  0  0  0  0  0  0  0
  139.8642  139.7614   88.1597 H   0  0  0  0  0  0  0  0  0  0  0  0
  136.6356  140.0105   89.5828 H   0  0  0  0  0  0  0  0  0  0  0  0
  136.2303  138.3002   89.1458 H   0  0  0  0  0  0  0  0  0  0  0  0
  137.3820  139.3089   91.5524 H   0  0  0  0  0  0  0  0  0  0  0  0
  136.9814  137.6105   91.0980 H   0  0  0  0  0  0  0  0  0  0  0  0
  139.3102  137.8722   91.7019 H   0  0  0  0  0  0  0  0  0  0  0  0
  140.1846  136.9415   89.5954 H   0  0  0  0  0  0  0  0  0  0  0  0
  138.6056  136.2332   90.0425 H   0  0  0  0  0  0  0  0  0  0  0  0
  139.2859  137.6539   87.5834 H   0  0  0  0  0  0  0  0  0  0  0  0
  137.6798  137.0042   88.0556 H   0  0  0  0  0  0  0  0  0  0  0  0
  144.0683  141.1177   89.1636 H   0  0  0  0  0  0  0  0  0  0  0  0
  146.5692  141.2986   88.3452 H   0  0  0  0  0  0  0  0  0  0  0  0
  148.9064  140.4448   88.5271 H   0  0  0  0  0  0  0  0  0  0  0  0
  149.4396  138.5802   90.1107 H   0  0  0  0  0  0  0  0  0  0  0  0
  1  2  2  0
  2  3  1  0
  3  4  1  0
  4  5  1  0
  5  6  1  0
  6  7  1  0
  7  8  1  0
  8  9  1  0
  9 10  1  0
 10 11  1  0
  2 12  1  0
 12 13  2  0
 13 14  1  0
 14 15  2  0
 15 16  1  0
 16 17  2  0
 17 18  1  0
 18 19  1  0
 18 20  2  0
 20 21  1  0
  9  4  1  0
 21 12  1  0
 11  6  1  0
 20 14  1  0
  3 22  1  0
  4 23  1  1
  5 24  1  0
  5 25  1  0
  7 26  1  0
  7 27  1  0
  8 28  1  0
  8 29  1  0
  9 30  1  0
 10 31  1  0
 10 32  1  0
 11 33  1  0
 11 34  1  0
 13 35  1  0
 15 36  1  0
 16 37  1  0
 17 38  1  0
M  END
>  <meeko>  (4)
{"is_sidechain": false}

>  <source_group>  (4)
CHRFAM7A at A face

>  <source_system>  (4)
CHRNA7_encenicline

>  <source_run>  (4)
hybrid_A_face_seed20260825_ex32

>  <source_seed>  (4)
20260825

>  <vina_pose_rank>  (4)
4

>  <vina_affinity_kcal_mol>  (4)
-6.9829999999999997

>  <vina_rmsd_to_crystal_angstrom>  (4)
3.3241999999999998

$$$$
CHRNA7_encenicline__hybrid_A_face_seed20260825_ex32__pose05
     RDKit          3D

 38 41  0  0  0  0  0  0  0  0999 V2000
  144.6870  139.4930   92.0900 O   0  0  0  0  0  0  0  0  0  0  0  0
  144.3170  138.5220   91.5220 C   0  0  0  0  0  0  0  0  0  0  0  0
  145.2310  137.4150   91.3170 N   0  0  0  0  0  0  0  0  0  0  0  0
  146.6210  137.5150   91.8200 C   0  0  1  0  0  0  0  0  0  0  0  0
  147.0590  136.1660   92.4230 C   0  0  0  0  0  0  0  0  0  0  0  0
  148.1950  135.6690   91.7780 N   0  0  0  0  0  0  0  0  0  0  0  0
  149.2310  136.5720   91.8660 C   0  0  0  0  0  0  0  0  0  0  0  0
  148.8680  137.8840   91.2350 C   0  0  0  0  0  0  0  0  0  0  0  0
  147.5270  137.8400   90.7230 C   0  0  0  0  0  0  0  0  0  0  0  0
  147.4480  136.7720   89.7290 C   0  0  0  0  0  0  0  0  0  0  0  0
  147.8990  135.4260   90.4140 C   0  0  0  0  0  0  0  0  0  0  0  0
  142.8740  138.4450   91.0130 C   0  0  0  0  0  0  0  0  0  0  0  0
  142.1120  137.3290   90.9590 C   0  0  0  0  0  0  0  0  0  0  0  0
  140.7700  137.4130   90.4570 C   0  0  0  0  0  0  0  0  0  0  0  0
  139.8750  136.3830   90.3400 C   0  0  0  0  0  0  0  0  0  0  0  0
  138.5980  136.6210   89.8290 C   0  0  0  0  0  0  0  0  0  0  0  0
  138.2310  137.9190   89.4330 C   0  0  0  0  0  0  0  0  0  0  0  0
  139.1400  138.9750   89.5510 C   0  0  0  0  0  0  0  0  0  0  0  0
  138.6670  140.6190   89.0490 Cl  0  0  0  0  0  0  0  0  0  0  0  0
  140.3970  138.7430   90.0540 C   0  0  0  0  0  0  0  0  0  0  0  0
  141.8820  139.7350   90.3930 S   0  0  0  0  0  0  0  0  0  0  0  0
  144.9310  136.6040   90.8480 H   0  0  0  0  0  0  0  0  0  0  0  0
  146.6573  138.3034   92.5863 H   0  0  0  0  0  0  0  0  0  0  0  0
  147.2851  136.3066   93.4903 H   0  0  0  0  0  0  0  0  0  0  0  0
  146.2400  135.4435   92.2918 H   0  0  0  0  0  0  0  0  0  0  0  0
  149.4712  136.7390   92.9264 H   0  0  0  0  0  0  0  0  0  0  0  0
  150.0979  136.1580   91.3302 H   0  0  0  0  0  0  0  0  0  0  0  0
  148.9419  138.6815   91.9890 H   0  0  0  0  0  0  0  0  0  0  0  0
  149.5605  138.0837   90.4040 H   0  0  0  0  0  0  0  0  0  0  0  0
  147.2557  138.8071   90.2746 H   0  0  0  0  0  0  0  0  0  0  0  0
  146.4139  136.6768   89.3664 H   0  0  0  0  0  0  0  0  0  0  0  0
  148.1013  137.0002   88.8739 H   0  0  0  0  0  0  0  0  0  0  0  0
  147.0877  134.6868   90.3404 H   0  0  0  0  0  0  0  0  0  0  0  0
  148.7945  135.0374   89.9070 H   0  0  0  0  0  0  0  0  0  0  0  0
  142.5177  136.3641   91.2973 H   0  0  0  0  0  0  0  0  0  0  0  0
  140.1627  135.3672   90.6490 H   0  0  0  0  0  0  0  0  0  0  0  0
  137.8793  135.7934   89.7362 H   0  0  0  0  0  0  0  0  0  0  0  0
  137.2250  138.1046   89.0288 H   0  0  0  0  0  0  0  0  0  0  0  0
  1  2  2  0
  2  3  1  0
  3  4  1  0
  4  5  1  0
  5  6  1  0
  6  7  1  0
  7  8  1  0
  8  9  1  0
  9 10  1  0
 10 11  1  0
  2 12  1  0
 12 13  2  0
 13 14  1  0
 14 15  2  0
 15 16  1  0
 16 17  2  0
 17 18  1  0
 18 19  1  0
 18 20  2  0
 20 21  1  0
  9  4  1  0
 21 12  1  0
 11  6  1  0
 20 14  1  0
  3 22  1  0
  4 23  1  1
  5 24  1  0
  5 25  1  0
  7 26  1  0
  7 27  1  0
  8 28  1  0
  8 29  1  0
  9 30  1  0
 10 31  1  0
 10 32  1  0
 11 33  1  0
 11 34  1  0
 13 35  1  0
 15 36  1  0
 16 37  1  0
 17 38  1  0
M  END
>  <meeko>  (5)
{"is_sidechain": false}

>  <source_group>  (5)
CHRFAM7A at A face

>  <source_system>  (5)
CHRNA7_encenicline

>  <source_run>  (5)
hybrid_A_face_seed20260825_ex32

>  <source_seed>  (5)
20260825

>  <vina_pose_rank>  (5)
5

>  <vina_affinity_kcal_mol>  (5)
-6.6289999999999996

>  <vina_rmsd_to_crystal_angstrom>  (5)
7.6822999999999997

$$$$
CHRNA7_encenicline__hybrid_A_face_seed20260825_ex32__pose06
     RDKit          3D

 38 41  0  0  0  0  0  0  0  0999 V2000
  142.2560  137.8570   90.7870 O   0  0  0  0  0  0  0  0  0  0  0  0
  142.3030  139.0280   90.6140 C   0  0  0  0  0  0  0  0  0  0  0  0
  141.0940  139.7570   90.2860 N   0  0  0  0  0  0  0  0  0  0  0  0
  139.8110  139.0260   90.1680 C   0  0  1  0  0  0  0  0  0  0  0  0
  138.6420  139.9480   90.5660 C   0  0  0  0  0  0  0  0  0  0  0  0
  137.7240  140.0810   89.5210 N   0  0  0  0  0  0  0  0  0  0  0  0
  137.2340  138.8470   89.1530 C   0  0  0  0  0  0  0  0  0  0  0  0
  138.3350  137.9340   88.6990 C   0  0  0  0  0  0  0  0  0  0  0  0
  139.6050  138.5980   88.7880 C   0  0  0  0  0  0  0  0  0  0  0  0
  139.5640  139.7860   87.9390 C   0  0  0  0  0  0  0  0  0  0  0  0
  138.3560  140.6850   88.4060 C   0  0  0  0  0  0  0  0  0  0  0  0
  143.6440  139.7590   90.7440 C   0  0  0  0  0  0  0  0  0  0  0  0
  144.2610  140.0810   91.9040 C   0  0  0  0  0  0  0  0  0  0  0  0
  145.5210  140.7680   91.8660 C   0  0  0  0  0  0  0  0  0  0  0  0
  146.2700  141.1610   92.9440 C   0  0  0  0  0  0  0  0  0  0  0  0
  147.4810  141.8260   92.7470 C   0  0  0  0  0  0  0  0  0  0  0  0
  147.9320  142.0920   91.4440 C   0  0  0  0  0  0  0  0  0  0  0  0
  147.1730  141.6930   90.3390 C   0  0  0  0  0  0  0  0  0  0  0  0
  147.7530  142.0320   88.6880 Cl  0  0  0  0  0  0  0  0  0  0  0  0
  145.9800  141.0390   90.5300 C   0  0  0  0  0  0  0  0  0  0  0  0
  144.6770  140.3420   89.4700 S   0  0  0  0  0  0  0  0  0  0  0  0
  141.1240  140.7300   90.1440 H   0  0  0  0  0  0  0  0  0  0  0  0
  139.8478  138.1511   90.8338 H   0  0  0  0  0  0  0  0  0  0  0  0
  138.1301  139.5208   91.4409 H   0  0  0  0  0  0  0  0  0  0  0  0
  139.0480  140.9429   90.8012 H   0  0  0  0  0  0  0  0  0  0  0  0
  136.7248  138.3923   90.0156 H   0  0  0  0  0  0  0  0  0  0  0  0
  136.5339  138.9879   88.3163 H   0  0  0  0  0  0  0  0  0  0  0  0
  138.3490  137.0380   89.3370 H   0  0  0  0  0  0  0  0  0  0  0  0
  138.1537  137.6498   87.6519 H   0  0  0  0  0  0  0  0  0  0  0  0
  140.4136  137.9229   88.4711 H   0  0  0  0  0  0  0  0  0  0  0  0
  140.5052  140.3467   88.0378 H   0  0  0  0  0  0  0  0  0  0  0  0
  139.4361  139.4956   86.8858 H   0  0  0  0  0  0  0  0  0  0  0  0
  138.7276  141.6808   88.6896 H   0  0  0  0  0  0  0  0  0  0  0  0
  137.6328  140.7853   87.5833 H   0  0  0  0  0  0  0  0  0  0  0  0
  143.8012  139.8186   92.8682 H   0  0  0  0  0  0  0  0  0  0  0  0
  145.9168  140.9523   93.9646 H   0  0  0  0  0  0  0  0  0  0  0  0
  148.0822  142.1418   93.6123 H   0  0  0  0  0  0  0  0  0  0  0  0
  148.8867  142.6166   91.2916 H   0  0  0  0  0  0  0  0  0  0  0  0
  1  2  2  0
  2  3  1  0
  3  4  1  0
  4  5  1  0
  5  6  1  0
  6  7  1  0
  7  8  1  0
  8  9  1  0
  9 10  1  0
 10 11  1  0
  2 12  1  0
 12 13  2  0
 13 14  1  0
 14 15  2  0
 15 16  1  0
 16 17  2  0
 17 18  1  0
 18 19  1  0
 18 20  2  0
 20 21  1  0
  9  4  1  0
 21 12  1  0
 11  6  1  0
 20 14  1  0
  3 22  1  0
  4 23  1  1
  5 24  1  0
  5 25  1  0
  7 26  1  0
  7 27  1  0
  8 28  1  0
  8 29  1  0
  9 30  1  0
 10 31  1  0
 10 32  1  0
 11 33  1  0
 11 34  1  0
 13 35  1  0
 15 36  1  0
 16 37  1  0
 17 38  1  0
M  END
>  <meeko>  (6)
{"is_sidechain": false}

>  <source_group>  (6)
CHRFAM7A at A face

>  <source_system>  (6)
CHRNA7_encenicline

>  <source_run>  (6)
hybrid_A_face_seed20260825_ex32

>  <source_seed>  (6)
20260825

>  <vina_pose_rank>  (6)
6

>  <vina_affinity_kcal_mol>  (6)
-6.4500000000000002

>  <vina_rmsd_to_crystal_angstrom>  (6)
4.2569999999999997

$$$$
CHRNA7_encenicline__hybrid_A_face_seed20260825_ex32__pose07
     RDKit          3D

 38 41  0  0  0  0  0  0  0  0999 V2000
  144.4430  140.1400   90.5020 O   0  0  0  0  0  0  0  0  0  0  0  0
  144.0600  139.0310   90.6670 C   0  0  0  0  0  0  0  0  0  0  0  0
  145.0060  137.9840   91.0020 N   0  0  0  0  0  0  0  0  0  0  0  0
  146.4440  138.3150   91.1300 C   0  0  1  0  0  0  0  0  0  0  0  0
  147.0930  137.4280   92.2100 C   0  0  0  0  0  0  0  0  0  0  0  0
  148.1490  136.6790   91.6820 N   0  0  0  0  0  0  0  0  0  0  0  0
  149.1000  137.5120   91.1360 C   0  0  0  0  0  0  0  0  0  0  0  0
  148.5250  138.3540   90.0350 C   0  0  0  0  0  0  0  0  0  0  0  0
  147.1280  138.0680   89.8640 C   0  0  0  0  0  0  0  0  0  0  0  0
  146.9850  136.6520   89.5330 C   0  0  0  0  0  0  0  0  0  0  0  0
  147.6590  135.8060   90.6800 C   0  0  0  0  0  0  0  0  0  0  0  0
  142.5660  138.7180   90.5290 C   0  0  0  0  0  0  0  0  0  0  0  0
  141.5930  139.6130   90.2440 C   0  0  0  0  0  0  0  0  0  0  0  0
  140.2320  139.1680   90.1440 C   0  0  0  0  0  0  0  0  0  0  0  0
  139.1370  139.9420   89.8630 C   0  0  0  0  0  0  0  0  0  0  0  0
  137.8690  139.3630   89.8000 C   0  0  0  0  0  0  0  0  0  0  0  0
  137.7150  137.9850   90.0270 C   0  0  0  0  0  0  0  0  0  0  0  0
  138.8280  137.1880   90.3130 C   0  0  0  0  0  0  0  0  0  0  0  0
  138.6260  135.4400   90.5970 Cl  0  0  0  0  0  0  0  0  0  0  0  0
  140.0780  137.7570   90.3760 C   0  0  0  0  0  0  0  0  0  0  0  0
  141.7710  137.1790   90.6990 S   0  0  0  0  0  0  0  0  0  0  0  0
  144.6950  137.0620   91.1440 H   0  0  0  0  0  0  0  0  0  0  0  0
  146.5330  139.3759   91.4068 H   0  0  0  0  0  0  0  0  0  0  0  0
  147.4763  138.0688   93.0178 H   0  0  0  0  0  0  0  0  0  0  0  0
  146.3314  136.7334   92.5941 H   0  0  0  0  0  0  0  0  0  0  0  0
  149.4919  138.1722   91.9237 H   0  0  0  0  0  0  0  0  0  0  0  0
  149.9022  136.8899   90.7124 H   0  0  0  0  0  0  0  0  0  0  0  0
  148.6489  139.4170   90.2892 H   0  0  0  0  0  0  0  0  0  0  0  0
  149.0535  138.1255   89.0977 H   0  0  0  0  0  0  0  0  0  0  0  0
  146.7024  138.6972   89.0684 H   0  0  0  0  0  0  0  0  0  0  0  0
  145.9185  136.3934   89.4574 H   0  0  0  0  0  0  0  0  0  0  0  0
  147.4687  136.4370   88.5687 H   0  0  0  0  0  0  0  0  0  0  0  0
  146.9155  135.1243   91.1187 H   0  0  0  0  0  0  0  0  0  0  0  0
  148.4916  135.2199   90.2638 H   0  0  0  0  0  0  0  0  0  0  0  0
  141.8425  140.6732   90.0901 H   0  0  0  0  0  0  0  0  0  0  0  0
  139.2576  141.0211   89.6869 H   0  0  0  0  0  0  0  0  0  0  0  0
  136.9906  139.9849   89.5728 H   0  0  0  0  0  0  0  0  0  0  0  0
  136.7142  137.5309   89.9795 H   0  0  0  0  0  0  0  0  0  0  0  0
  1  2  2  0
  2  3  1  0
  3  4  1  0
  4  5  1  0
  5  6  1  0
  6  7  1  0
  7  8  1  0
  8  9  1  0
  9 10  1  0
 10 11  1  0
  2 12  1  0
 12 13  2  0
 13 14  1  0
 14 15  2  0
 15 16  1  0
 16 17  2  0
 17 18  1  0
 18 19  1  0
 18 20  2  0
 20 21  1  0
  9  4  1  0
 21 12  1  0
 11  6  1  0
 20 14  1  0
  3 22  1  0
  4 23  1  1
  5 24  1  0
  5 25  1  0
  7 26  1  0
  7 27  1  0
  8 28  1  0
  8 29  1  0
  9 30  1  0
 10 31  1  0
 10 32  1  0
 11 33  1  0
 11 34  1  0
 13 35  1  0
 15 36  1  0
 16 37  1  0
 17 38  1  0
M  END
>  <meeko>  (7)
{"is_sidechain": false}

>  <source_group>  (7)
CHRFAM7A at A face

>  <source_system>  (7)
CHRNA7_encenicline

>  <source_run>  (7)
hybrid_A_face_seed20260825_ex32

>  <source_seed>  (7)
20260825

>  <vina_pose_rank>  (7)
7

>  <vina_affinity_kcal_mol>  (7)
-6.4089999999999998

>  <vina_rmsd_to_crystal_angstrom>  (7)
7.5918999999999999

$$$$
CHRNA7_encenicline__hybrid_A_face_seed20260825_ex32__pose08
     RDKit          3D

 38 41  0  0  0  0  0  0  0  0999 V2000
  144.1390  142.0510   92.6270 O   0  0  0  0  0  0  0  0  0  0  0  0
  143.8140  141.0960   93.2480 C   0  0  0  0  0  0  0  0  0  0  0  0
  142.8900  141.2380   94.3560 N   0  0  0  0  0  0  0  0  0  0  0  0
  142.3650  142.5790   94.7000 C   0  0  1  0  0  0  0  0  0  0  0  0
  140.8630  142.6580   94.3620 C   0  0  0  0  0  0  0  0  0  0  0  0
  140.1050  142.9680   95.4940 N   0  0  0  0  0  0  0  0  0  0  0  0
  140.5200  144.1650   96.0350 C   0  0  0  0  0  0  0  0  0  0  0  0
  141.9640  144.1140   96.4360 C   0  0  0  0  0  0  0  0  0  0  0  0
  142.5240  142.8270   96.1300 C   0  0  0  0  0  0  0  0  0  0  0  0
  141.7690  141.8110   96.8590 C   0  0  0  0  0  0  0  0  0  0  0  0
  140.2500  141.9420   96.4600 C   0  0  0  0  0  0  0  0  0  0  0  0
  144.3730  139.7200   92.8700 C   0  0  0  0  0  0  0  0  0  0  0  0
  143.6420  138.6440   92.4980 C   0  0  0  0  0  0  0  0  0  0  0  0
  144.3090  137.4170   92.1700 C   0  0  0  0  0  0  0  0  0  0  0  0
  143.7180  136.2450   91.7760 C   0  0  0  0  0  0  0  0  0  0  0  0
  144.5040  135.1280   91.4900 C   0  0  0  0  0  0  0  0  0  0  0  0
  145.9020  135.2040   91.6070 C   0  0  0  0  0  0  0  0  0  0  0  0
  146.5120  136.3970   92.0080 C   0  0  0  0  0  0  0  0  0  0  0  0
  148.2870  136.4880   92.1520 Cl  0  0  0  0  0  0  0  0  0  0  0  0
  145.7400  137.4990   92.2900 C   0  0  0  0  0  0  0  0  0  0  0  0
  146.0370  139.2100   92.8260 S   0  0  0  0  0  0  0  0  0  0  0  0
  142.6130  140.4490   94.8760 H   0  0  0  0  0  0  0  0  0  0  0  0
  142.9246  143.3290   94.1217 H   0  0  0  0  0  0  0  0  0  0  0  0
  140.7071  143.4374   93.6015 H   0  0  0  0  0  0  0  0  0  0  0  0
  140.5393  141.6768   93.9846 H   0  0  0  0  0  0  0  0  0  0  0  0
  140.3840  144.9613   95.2884 H   0  0  0  0  0  0  0  0  0  0  0  0
  139.9184  144.3652   96.9339 H   0  0  0  0  0  0  0  0  0  0  0  0
  142.5195  144.8902   95.8892 H   0  0  0  0  0  0  0  0  0  0  0  0
  142.0395  144.2873   97.5196 H   0  0  0  0  0  0  0  0  0  0  0  0
  143.5873  142.7950   96.4099 H   0  0  0  0  0  0  0  0  0  0  0  0
  142.1387  140.8100   96.5920 H   0  0  0  0  0  0  0  0  0  0  0  0
  141.8898  141.9541   97.9429 H   0  0  0  0  0  0  0  0  0  0  0  0
  139.8974  140.9889   96.0390 H   0  0  0  0  0  0  0  0  0  0  0  0
  139.6555  142.1897   97.3517 H   0  0  0  0  0  0  0  0  0  0  0  0
  142.5451  138.7095   92.4475 H   0  0  0  0  0  0  0  0  0  0  0  0
  142.6234  136.1847   91.6852 H   0  0  0  0  0  0  0  0  0  0  0  0
  144.0290  134.1879   91.1729 H   0  0  0  0  0  0  0  0  0  0  0  0
  146.5193  134.3217   91.3823 H   0  0  0  0  0  0  0  0  0  0  0  0
  1  2  2  0
  2  3  1  0
  3  4  1  0
  4  5  1  0
  5  6  1  0
  6  7  1  0
  7  8  1  0
  8  9  1  0
  9 10  1  0
 10 11  1  0
  2 12  1  0
 12 13  2  0
 13 14  1  0
 14 15  2  0
 15 16  1  0
 16 17  2  0
 17 18  1  0
 18 19  1  0
 18 20  2  0
 20 21  1  0
  9  4  1  0
 21 12  1  0
 11  6  1  0
 20 14  1  0
  3 22  1  0
  4 23  1  6
  5 24  1  0
  5 25  1  0
  7 26  1  0
  7 27  1  0
  8 28  1  0
  8 29  1  0
  9 30  1  0
 10 31  1  0
 10 32  1  0
 11 33  1  0
 11 34  1  0
 13 35  1  0
 15 36  1  0
 16 37  1  0
 17 38  1  0
M  END
>  <meeko>  (8)
{"is_sidechain": false}

>  <source_group>  (8)
CHRFAM7A at A face

>  <source_system>  (8)
CHRNA7_encenicline

>  <source_run>  (8)
hybrid_A_face_seed20260825_ex32

>  <source_seed>  (8)
20260825

>  <vina_pose_rank>  (8)
8

>  <vina_affinity_kcal_mol>  (8)
-6.3369999999999997

>  <vina_rmsd_to_crystal_angstrom>  (8)
4.9663000000000004

$$$$
CHRNA7_encenicline__hybrid_A_face_seed20260825_ex32__pose09
     RDKit          3D

 38 41  0  0  0  0  0  0  0  0999 V2000
  146.2880  140.5340   92.4150 O   0  0  0  0  0  0  0  0  0  0  0  0
  145.2230  140.0170   92.4440 C   0  0  0  0  0  0  0  0  0  0  0  0
  145.0610  138.6700   91.9320 N   0  0  0  0  0  0  0  0  0  0  0  0
  146.2320  137.9580   91.3730 C   0  0  1  0  0  0  0  0  0  0  0  0
  146.7640  136.9370   92.3990 C   0  0  0  0  0  0  0  0  0  0  0  0
  146.7540  135.6410   91.8760 N   0  0  0  0  0  0  0  0  0  0  0  0
  147.5130  135.5810   90.7290 C   0  0  0  0  0  0  0  0  0  0  0  0
  146.9930  136.5170   89.6780 C   0  0  0  0  0  0  0  0  0  0  0  0
  145.8480  137.2320   90.1660 C   0  0  0  0  0  0  0  0  0  0  0  0
  144.8160  136.2620   90.5220 C   0  0  0  0  0  0  0  0  0  0  0  0
  145.4230  135.2600   91.5770 C   0  0  0  0  0  0  0  0  0  0  0  0
  144.0270  140.7780   93.0280 C   0  0  0  0  0  0  0  0  0  0  0  0
  142.9260  141.1660   92.3440 C   0  0  0  0  0  0  0  0  0  0  0  0
  141.8820  141.8730   93.0300 C   0  0  0  0  0  0  0  0  0  0  0  0
  140.7110  142.3300   92.4860 C   0  0  0  0  0  0  0  0  0  0  0  0
  139.7870  143.0070   93.2840 C   0  0  0  0  0  0  0  0  0  0  0  0
  140.0590  143.2200   94.6460 C   0  0  0  0  0  0  0  0  0  0  0  0
  141.2520  142.7550   95.2080 C   0  0  0  0  0  0  0  0  0  0  0  0
  141.5900  143.0260   96.9370 Cl  0  0  0  0  0  0  0  0  0  0  0  0
  142.1640  142.0890   94.4240 C   0  0  0  0  0  0  0  0  0  0  0  0
  143.7930  141.3190   94.6660 S   0  0  0  0  0  0  0  0  0  0  0  0
  144.1790  138.2330   91.9550 H   0  0  0  0  0  0  0  0  0  0  0  0
  147.0083  138.7005   91.1363 H   0  0  0  0  0  0  0  0  0  0  0  0
  147.7954  137.2060   92.6708 H   0  0  0  0  0  0  0  0  0  0  0  0
  146.1105  136.9601   93.2835 H   0  0  0  0  0  0  0  0  0  0  0  0
  148.5501  135.8560   90.9715 H   0  0  0  0  0  0  0  0  0  0  0  0
  147.4628  134.5555   90.3343 H   0  0  0  0  0  0  0  0  0  0  0  0
  147.7818  137.2355   89.4104 H   0  0  0  0  0  0  0  0  0  0  0  0
  146.6981  135.9323   88.7942 H   0  0  0  0  0  0  0  0  0  0  0  0
  145.4769  137.9291   89.4002 H   0  0  0  0  0  0  0  0  0  0  0  0
  143.9506  136.7825   90.9581 H   0  0  0  0  0  0  0  0  0  0  0  0
  144.4839  135.7155   89.6270 H   0  0  0  0  0  0  0  0  0  0  0  0
  144.8190  135.2843   92.4960 H   0  0  0  0  0  0  0  0  0  0  0  0
  145.4168  134.2413   91.1621 H   0  0  0  0  0  0  0  0  0  0  0  0
  142.8317  140.9415   91.2713 H   0  0  0  0  0  0  0  0  0  0  0  0
  140.4985  142.1635   91.4196 H   0  0  0  0  0  0  0  0  0  0  0  0
  138.8465  143.3735   92.8468 H   0  0  0  0  0  0  0  0  0  0  0  0
  139.3303  143.7549   95.2729 H   0  0  0  0  0  0  0  0  0  0  0  0
  1  2  2  0
  2  3  1  0
  3  4  1  0
  4  5  1  0
  5  6  1  0
  6  7  1  0
  7  8  1  0
  8  9  1  0
  9 10  1  0
 10 11  1  0
  2 12  1  0
 12 13  2  0
 13 14  1  0
 14 15  2  0
 15 16  1  0
 16 17  2  0
 17 18  1  0
 18 19  1  0
 18 20  2  0
 20 21  1  0
  9  4  1  0
 21 12  1  0
 11  6  1  0
 20 14  1  0
  3 22  1  0
  4 23  1  6
  5 24  1  0
  5 25  1  0
  7 26  1  0
  7 27  1  0
  8 28  1  0
  8 29  1  0
  9 30  1  0
 10 31  1  0
 10 32  1  0
 11 33  1  0
 11 34  1  0
 13 35  1  0
 15 36  1  0
 16 37  1  0
 17 38  1  0
M  END
>  <meeko>  (9)
{"is_sidechain": false}

>  <source_group>  (9)
CHRFAM7A at A face

>  <source_system>  (9)
CHRNA7_encenicline

>  <source_run>  (9)
hybrid_A_face_seed20260825_ex32

>  <source_seed>  (9)
20260825

>  <vina_pose_rank>  (9)
9

>  <vina_affinity_kcal_mol>  (9)
-6.3129999999999997

>  <vina_rmsd_to_crystal_angstrom>  (9)
7.8403

$$$$
CHRNA7_encenicline__hybrid_A_face_seed20260825_ex32__pose10
     RDKit          3D

 38 41  0  0  0  0  0  0  0  0999 V2000
  144.5820  139.2860   91.6420 O   0  0  0  0  0  0  0  0  0  0  0  0
  144.0380  139.3370   90.5920 C   0  0  0  0  0  0  0  0  0  0  0  0
  144.7650  139.8020   89.4260 N   0  0  0  0  0  0  0  0  0  0  0  0
  146.1810  140.2110   89.5660 C   0  0  1  0  0  0  0  0  0  0  0  0
  147.1050  139.0890   89.0530 C   0  0  0  0  0  0  0  0  0  0  0  0
  147.9260  139.5440   88.0170 N   0  0  0  0  0  0  0  0  0  0  0  0
  148.6870  140.6110   88.4420 C   0  0  0  0  0  0  0  0  0  0  0  0
  147.8260  141.7520   88.8950 C   0  0  0  0  0  0  0  0  0  0  0  0
  146.4360  141.4100   88.7740 C   0  0  0  0  0  0  0  0  0  0  0  0
  146.1580  141.1030   87.3730 C   0  0  0  0  0  0  0  0  0  0  0  0
  147.1270  139.9470   86.9190 C   0  0  0  0  0  0  0  0  0  0  0  0
  142.5710  138.9080   90.4750 C   0  0  0  0  0  0  0  0  0  0  0  0
  141.5310  139.7180   90.1720 C   0  0  0  0  0  0  0  0  0  0  0  0
  140.2070  139.1690   90.0970 C   0  0  0  0  0  0  0  0  0  0  0  0
  139.0550  139.8500   89.8020 C   0  0  0  0  0  0  0  0  0  0  0  0
  137.8350  139.1750   89.7680 C   0  0  0  0  0  0  0  0  0  0  0  0
  137.7860  137.7960   90.0360 C   0  0  0  0  0  0  0  0  0  0  0  0
  138.9580  137.0950   90.3370 C   0  0  0  0  0  0  0  0  0  0  0  0
  138.8900  135.3460   90.6740 Cl  0  0  0  0  0  0  0  0  0  0  0  0
  140.1610  137.7580   90.3710 C   0  0  0  0  0  0  0  0  0  0  0  0
  141.8950  137.3190   90.6970 S   0  0  0  0  0  0  0  0  0  0  0  0
  144.3210  139.8460   88.5490 H   0  0  0  0  0  0  0  0  0  0  0  0
  146.3807  140.4111   90.6291 H   0  0  0  0  0  0  0  0  0  0  0  0
  147.7359  138.7366   89.8823 H   0  0  0  0  0  0  0  0  0  0  0  0
  146.4786  138.2711   88.6673 H   0  0  0  0  0  0  0  0  0  0  0  0
  149.3213  140.2867   89.2802 H   0  0  0  0  0  0  0  0  0  0  0  0
  149.3017  140.9556   87.5974 H   0  0  0  0  0  0  0  0  0  0  0  0
  148.0525  141.9815   89.9467 H   0  0  0  0  0  0  0  0  0  0  0  0
  148.0339  142.6282   88.2633 H   0  0  0  0  0  0  0  0  0  0  0  0
  145.8049  142.2412   89.1218 H   0  0  0  0  0  0  0  0  0  0  0  0
  145.1131  140.7770   87.2638 H   0  0  0  0  0  0  0  0  0  0  0  0
  146.3154  141.9962   86.7506 H   0  0  0  0  0  0  0  0  0  0  0  0
  146.5353  139.0912   86.5621 H   0  0  0  0  0  0  0  0  0  0  0  0
  147.7746  140.3084   86.1066 H   0  0  0  0  0  0  0  0  0  0  0  0
  141.6986  140.7889   89.9846 H   0  0  0  0  0  0  0  0  0  0  0  0
  139.0925  140.9291   89.5920 H   0  0  0  0  0  0  0  0  0  0  0  0
  136.9105  139.7221   89.5313 H   0  0  0  0  0  0  0  0  0  0  0  0
  136.8223  137.2664   90.0089 H   0  0  0  0  0  0  0  0  0  0  0  0
  1  2  2  0
  2  3  1  0
  3  4  1  0
  4  5  1  0
  5  6  1  0
  6  7  1  0
  7  8  1  0
  8  9  1  0
  9 10  1  0
 10 11  1  0
  2 12  1  0
 12 13  2  0
 13 14  1  0
 14 15  2  0
 15 16  1  0
 16 17  2  0
 17 18  1  0
 18 19  1  0
 18 20  2  0
 20 21  1  0
  9  4  1  0
 21 12  1  0
 11  6  1  0
 20 14  1  0
  3 22  1  0
  4 23  1  1
  5 24  1  0
  5 25  1  0
  7 26  1  0
  7 27  1  0
  8 28  1  0
  8 29  1  0
  9 30  1  0
 10 31  1  0
 10 32  1  0
 11 33  1  0
 11 34  1  0
 13 35  1  0
 15 36  1  0
 16 37  1  0
 17 38  1  0
M  END
>  <meeko>  (10)
{"is_sidechain": false}

>  <source_group>  (10)
CHRFAM7A at A face

>  <source_system>  (10)
CHRNA7_encenicline

>  <source_run>  (10)
hybrid_A_face_seed20260825_ex32

>  <source_seed>  (10)
20260825

>  <vina_pose_rank>  (10)
10

>  <vina_affinity_kcal_mol>  (10)
-6.2960000000000003

>  <vina_rmsd_to_crystal_angstrom>  (10)
7.0023

$$$$
CHRNA7_encenicline__hybrid_A_face_seed20260825_ex32__pose11
     RDKit          3D

 38 41  0  0  0  0  0  0  0  0999 V2000
  145.9040  140.7110   92.1980 O   0  0  0  0  0  0  0  0  0  0  0  0
  144.9380  140.0840   92.4750 C   0  0  0  0  0  0  0  0  0  0  0  0
  144.8790  138.6720   92.1520 N   0  0  0  0  0  0  0  0  0  0  0  0
  146.0290  138.0310   91.4740 C   0  0  1  0  0  0  0  0  0  0  0  0
  146.7020  137.0210   92.4240 C   0  0  0  0  0  0  0  0  0  0  0  0
  146.7080  135.7360   91.8760 N   0  0  0  0  0  0  0  0  0  0  0  0
  147.3630  135.7360   90.6630 C   0  0  0  0  0  0  0  0  0  0  0  0
  146.7030  136.6620   89.6850 C   0  0  0  0  0  0  0  0  0  0  0  0
  145.5730  137.3090   90.2900 C   0  0  0  0  0  0  0  0  0  0  0  0
  144.6270  136.2800   90.7160 C   0  0  0  0  0  0  0  0  0  0  0  0
  145.3760  135.2920   91.6880 C   0  0  0  0  0  0  0  0  0  0  0  0
  143.7630  140.7740   93.1760 C   0  0  0  0  0  0  0  0  0  0  0  0
  143.5560  140.8220   94.5130 C   0  0  0  0  0  0  0  0  0  0  0  0
  142.4060  141.5100   95.0250 C   0  0  0  0  0  0  0  0  0  0  0  0
  142.0570  141.6500   96.3420 C   0  0  0  0  0  0  0  0  0  0  0  0
  140.9000  142.3500   96.6870 C   0  0  0  0  0  0  0  0  0  0  0  0
  140.0920  142.9100   95.6840 C   0  0  0  0  0  0  0  0  0  0  0  0
  140.4430  142.7720   94.3370 C   0  0  0  0  0  0  0  0  0  0  0  0
  139.4150  143.4870   93.0680 Cl  0  0  0  0  0  0  0  0  0  0  0  0
  141.5820  142.0830   93.9940 C   0  0  0  0  0  0  0  0  0  0  0  0
  142.4380  141.6410   92.4530 S   0  0  0  0  0  0  0  0  0  0  0  0
  144.0810  138.1440   92.3810 H   0  0  0  0  0  0  0  0  0  0  0  0
  146.7434  138.8163   91.1858 H   0  0  0  0  0  0  0  0  0  0  0  0
  147.7395  137.3375   92.6071 H   0  0  0  0  0  0  0  0  0  0  0  0
  146.1317  136.9951   93.3643 H   0  0  0  0  0  0  0  0  0  0  0  0
  148.4026  136.0605   90.8176 H   0  0  0  0  0  0  0  0  0  0  0  0
  147.3296  134.7165   90.2514 H   0  0  0  0  0  0  0  0  0  0  0  0
  147.4273  137.4246   89.3629 H   0  0  0  0  0  0  0  0  0  0  0  0
  146.3575  136.0780   88.8192 H   0  0  0  0  0  0  0  0  0  0  0  0
  145.0999  138.0001   89.5769 H   0  0  0  0  0  0  0  0  0  0  0  0
  143.7803  136.7471   91.2403 H   0  0  0  0  0  0  0  0  0  0  0  0
  144.2424  135.7335   89.8423 H   0  0  0  0  0  0  0  0  0  0  0  0
  144.8571  135.2674   92.6576 H   0  0  0  0  0  0  0  0  0  0  0  0
  145.3836  134.2824   91.2513 H   0  0  0  0  0  0  0  0  0  0  0  0
  144.2640  140.3373   95.2013 H   0  0  0  0  0  0  0  0  0  0  0  0
  142.6888  141.2106   97.1280 H   0  0  0  0  0  0  0  0  0  0  0  0
  140.6208  142.4632   97.7449 H   0  0  0  0  0  0  0  0  0  0  0  0
  139.1795  143.4593   95.9588 H   0  0  0  0  0  0  0  0  0  0  0  0
  1  2  2  0
  2  3  1  0
  3  4  1  0
  4  5  1  0
  5  6  1  0
  6  7  1  0
  7  8  1  0
  8  9  1  0
  9 10  1  0
 10 11  1  0
  2 12  1  0
 12 13  2  0
 13 14  1  0
 14 15  2  0
 15 16  1  0
 16 17  2  0
 17 18  1  0
 18 19  1  0
 18 20  2  0
 20 21  1  0
  9  4  1  0
 21 12  1  0
 11  6  1  0
 20 14  1  0
  3 22  1  0
  4 23  1  6
  5 24  1  0
  5 25  1  0
  7 26  1  0
  7 27  1  0
  8 28  1  0
  8 29  1  0
  9 30  1  0
 10 31  1  0
 10 32  1  0
 11 33  1  0
 11 34  1  0
 13 35  1  0
 15 36  1  0
 16 37  1  0
 17 38  1  0
M  END
>  <meeko>  (11)
{"is_sidechain": false}

>  <source_group>  (11)
CHRFAM7A at A face

>  <source_system>  (11)
CHRNA7_encenicline

>  <source_run>  (11)
hybrid_A_face_seed20260825_ex32

>  <source_seed>  (11)
20260825

>  <vina_pose_rank>  (11)
11

>  <vina_affinity_kcal_mol>  (11)
-6.1589999999999998

>  <vina_rmsd_to_crystal_angstrom>  (11)
7.8642000000000003

$$$$
CHRNA7_encenicline__hybrid_A_face_seed20260825_ex32__pose12
     RDKit          3D

 38 41  0  0  0  0  0  0  0  0999 V2000
  140.3070  140.8680   85.9490 O   0  0  0  0  0  0  0  0  0  0  0  0
  141.1840  140.4150   86.6030 C   0  0  0  0  0  0  0  0  0  0  0  0
  140.8900  139.8210   87.8920 N   0  0  0  0  0  0  0  0  0  0  0  0
  139.4920  139.7920   88.3790 C   0  0  1  0  0  0  0  0  0  0  0  0
  138.8000  138.4960   87.9110 C   0  0  0  0  0  0  0  0  0  0  0  0
  138.3330  137.7520   88.9980 N   0  0  0  0  0  0  0  0  0  0  0  0
  137.4530  138.5000   89.7490 C   0  0  0  0  0  0  0  0  0  0  0  0
  138.1030  139.7440   90.2760 C   0  0  0  0  0  0  0  0  0  0  0  0
  139.4690  139.8200   89.8380 C   0  0  0  0  0  0  0  0  0  0  0  0
  140.1770  138.6420   90.3320 C   0  0  0  0  0  0  0  0  0  0  0  0
  139.4250  137.3590   89.8100 C   0  0  0  0  0  0  0  0  0  0  0  0
  142.6230  140.4590   86.0750 C   0  0  0  0  0  0  0  0  0  0  0  0
  143.7270  140.0730   86.7540 C   0  0  0  0  0  0  0  0  0  0  0  0
  145.0130  140.1710   86.1250 C   0  0  0  0  0  0  0  0  0  0  0  0
  146.2200  139.8220   86.6720 C   0  0  0  0  0  0  0  0  0  0  0  0
  147.3930  139.9770   85.9330 C   0  0  0  0  0  0  0  0  0  0  0  0
  147.3370  140.4900   84.6260 C   0  0  0  0  0  0  0  0  0  0  0  0
  146.1090  140.8470   84.0610 C   0  0  0  0  0  0  0  0  0  0  0  0
  146.0440  141.4950   82.4010 Cl  0  0  0  0  0  0  0  0  0  0  0  0
  144.9520  140.6960   84.7870 C   0  0  0  0  0  0  0  0  0  0  0  0
  143.1800  140.9990   84.5170 S   0  0  0  0  0  0  0  0  0  0  0  0
  141.6130  139.4410   88.4400 H   0  0  0  0  0  0  0  0  0  0  0  0
  138.9665  140.6706   87.9765 H   0  0  0  0  0  0  0  0  0  0  0  0
  137.9503  138.7568   87.2630 H   0  0  0  0  0  0  0  0  0  0  0  0
  139.5339  137.8878   87.3619 H   0  0  0  0  0  0  0  0  0  0  0  0
  136.5963  138.7830   89.1197 H   0  0  0  0  0  0  0  0  0  0  0  0
  137.1249  137.8919   90.6049 H   0  0  0  0  0  0  0  0  0  0  0  0
  137.5547  140.6234   89.9071 H   0  0  0  0  0  0  0  0  0  0  0  0
  138.0820  139.7189   91.3755 H   0  0  0  0  0  0  0  0  0  0  0  0
  139.9409  140.7407   90.2116 H   0  0  0  0  0  0  0  0  0  0  0  0
  141.2113  138.6453   89.9576 H   0  0  0  0  0  0  0  0  0  0  0  0
  140.2005  138.6469   91.4317 H   0  0  0  0  0  0  0  0  0  0  0  0
  140.1182  136.7420   89.2194 H   0  0  0  0  0  0  0  0  0  0  0  0
  139.0553  136.7757   90.6662 H   0  0  0  0  0  0  0  0  0  0  0  0
  143.6399  139.6870   87.7803 H   0  0  0  0  0  0  0  0  0  0  0  0
  146.2640  139.4193   87.6947 H   0  0  0  0  0  0  0  0  0  0  0  0
  148.3616  139.6977   86.3733 H   0  0  0  0  0  0  0  0  0  0  0  0
  148.2632  140.6112   84.0450 H   0  0  0  0  0  0  0  0  0  0  0  0
  1  2  2  0
  2  3  1  0
  3  4  1  0
  4  5  1  0
  5  6  1  0
  6  7  1  0
  7  8  1  0
  8  9  1  0
  9 10  1  0
 10 11  1  0
  2 12  1  0
 12 13  2  0
 13 14  1  0
 14 15  2  0
 15 16  1  0
 16 17  2  0
 17 18  1  0
 18 19  1  0
 18 20  2  0
 20 21  1  0
  9  4  1  0
 21 12  1  0
 11  6  1  0
 20 14  1  0
  3 22  1  0
  4 23  1  6
  5 24  1  0
  5 25  1  0
  7 26  1  0
  7 27  1  0
  8 28  1  0
  8 29  1  0
  9 30  1  0
 10 31  1  0
 10 32  1  0
 11 33  1  0
 11 34  1  0
 13 35  1  0
 15 36  1  0
 16 37  1  0
 17 38  1  0
M  END
>  <meeko>  (12)
{"is_sidechain": false}

>  <source_group>  (12)
CHRFAM7A at A face

>  <source_system>  (12)
CHRNA7_encenicline

>  <source_run>  (12)
hybrid_A_face_seed20260825_ex32

>  <source_seed>  (12)
20260825

>  <vina_pose_rank>  (12)
12

>  <vina_affinity_kcal_mol>  (12)
-6.085

>  <vina_rmsd_to_crystal_angstrom>  (12)
5.9116999999999997

$$$$
CHRNA7_encenicline__hybrid_A_face_seed20260825_ex32__pose13
     RDKit          3D

 38 41  0  0  0  0  0  0  0  0999 V2000
  141.2800  136.2550   90.7070 O   0  0  0  0  0  0  0  0  0  0  0  0
  141.7670  137.3300   90.6090 C   0  0  0  0  0  0  0  0  0  0  0  0
  140.9260  138.4810   90.3390 N   0  0  0  0  0  0  0  0  0  0  0  0
  139.4650  138.2950   90.1870 C   0  0  1  0  0  0  0  0  0  0  0  0
  138.7210  139.5510   90.6800 C   0  0  0  0  0  0  0  0  0  0  0  0
  137.9330  140.1040   89.6670 N   0  0  0  0  0  0  0  0  0  0  0  0
  137.0210  139.1770   89.2090 C   0  0  0  0  0  0  0  0  0  0  0  0
  137.7050  137.9590   88.6630 C   0  0  0  0  0  0  0  0  0  0  0  0
  139.1310  138.0900   88.7800 C   0  0  0  0  0  0  0  0  0  0  0  0
  139.5480  139.2720   88.0320 C   0  0  0  0  0  0  0  0  0  0  0  0
  138.7590  140.5160   88.5920 C   0  0  0  0  0  0  0  0  0  0  0  0
  143.2820  137.4940   90.7710 C   0  0  0  0  0  0  0  0  0  0  0  0
  143.9260  138.6460   91.0700 C   0  0  0  0  0  0  0  0  0  0  0  0
  145.3560  138.6430   91.1920 C   0  0  0  0  0  0  0  0  0  0  0  0
  146.1530  139.7170   91.4900 C   0  0  0  0  0  0  0  0  0  0  0  0
  147.5360  139.5590   91.5730 C   0  0  0  0  0  0  0  0  0  0  0  0
  148.1140  138.2970   91.3520 C   0  0  0  0  0  0  0  0  0  0  0  0
  147.3060  137.1960   91.0500 C   0  0  0  0  0  0  0  0  0  0  0  0
  148.0440  135.5970   90.7720 Cl  0  0  0  0  0  0  0  0  0  0  0  0
  145.9430  137.3500   90.9660 C   0  0  0  0  0  0  0  0  0  0  0  0
  144.5170  136.2770   90.6170 S   0  0  0  0  0  0  0  0  0  0  0  0
  141.3220  139.3770   90.2580 H   0  0  0  0  0  0  0  0  0  0  0  0
  139.1636  137.4184   90.7792 H   0  0  0  0  0  0  0  0  0  0  0  0
  138.0750  139.2757   91.5267 H   0  0  0  0  0  0  0  0  0  0  0  0
  139.4671  140.2987   90.9871 H   0  0  0  0  0  0  0  0  0  0  0  0
  136.3669  138.8773   90.0411 H   0  0  0  0  0  0  0  0  0  0  0  0
  136.4365  139.6378   88.3991 H   0  0  0  0  0  0  0  0  0  0  0  0
  137.3749  137.0744   89.2274 H   0  0  0  0  0  0  0  0  0  0  0  0
  137.4430  137.8491   87.6003 H   0  0  0  0  0  0  0  0  0  0  0  0
  139.6318  137.1903   88.3930 H   0  0  0  0  0  0  0  0  0  0  0  0
  140.6293  139.4298   88.1583 H   0  0  0  0  0  0  0  0  0  0  0  0
  139.3338  139.1380   86.9614 H   0  0  0  0  0  0  0  0  0  0  0  0
  139.4728  141.2739   88.9471 H   0  0  0  0  0  0  0  0  0  0  0  0
  138.1362  140.9460   87.7938 H   0  0  0  0  0  0  0  0  0  0  0  0
  143.3584  139.5765   91.2182 H   0  0  0  0  0  0  0  0  0  0  0  0
  145.7014  140.7048   91.6639 H   0  0  0  0  0  0  0  0  0  0  0  0
  148.1747  140.4222   91.8115 H   0  0  0  0  0  0  0  0  0  0  0  0
  149.2053  138.1748   91.4168 H   0  0  0  0  0  0  0  0  0  0  0  0
  1  2  2  0
  2  3  1  0
  3  4  1  0
  4  5  1  0
  5  6  1  0
  6  7  1  0
  7  8  1  0
  8  9  1  0
  9 10  1  0
 10 11  1  0
  2 12  1  0
 12 13  2  0
 13 14  1  0
 14 15  2  0
 15 16  1  0
 16 17  2  0
 17 18  1  0
 18 19  1  0
 18 20  2  0
 20 21  1  0
  9  4  1  0
 21 12  1  0
 11  6  1  0
 20 14  1  0
  3 22  1  0
  4 23  1  1
  5 24  1  0
  5 25  1  0
  7 26  1  0
  7 27  1  0
  8 28  1  0
  8 29  1  0
  9 30  1  0
 10 31  1  0
 10 32  1  0
 11 33  1  0
 11 34  1  0
 13 35  1  0
 15 36  1  0
 16 37  1  0
 17 38  1  0
M  END
>  <meeko>  (13)
{"is_sidechain": false}

>  <source_group>  (13)
CHRFAM7A at A face

>  <source_system>  (13)
CHRNA7_encenicline

>  <source_run>  (13)
hybrid_A_face_seed20260825_ex32

>  <source_seed>  (13)
20260825

>  <vina_pose_rank>  (13)
13

>  <vina_affinity_kcal_mol>  (13)
-6.0350000000000001

>  <vina_rmsd_to_crystal_angstrom>  (13)
3.1048

$$$$
CHRNA7_encenicline__hybrid_A_face_seed20260825_ex32__pose14
     RDKit          3D

 38 41  0  0  0  0  0  0  0  0999 V2000
  139.9490  139.0660   90.3430 O   0  0  0  0  0  0  0  0  0  0  0  0
  140.4770  140.1150   90.4980 C   0  0  0  0  0  0  0  0  0  0  0  0
  141.9090  140.1740   90.7210 N   0  0  0  0  0  0  0  0  0  0  0  0
  142.6930  138.9180   90.7550 C   0  0  1  0  0  0  0  0  0  0  0  0
  143.8130  138.9700   89.6970 C   0  0  0  0  0  0  0  0  0  0  0  0
  145.0710  138.8140   90.2840 N   0  0  0  0  0  0  0  0  0  0  0  0
  145.1370  137.6190   90.9670 C   0  0  0  0  0  0  0  0  0  0  0  0
  144.1000  137.5500   92.0500 C   0  0  0  0  0  0  0  0  0  0  0  0
  143.3120  138.7500   92.0660 C   0  0  0  0  0  0  0  0  0  0  0  0
  144.2030  139.8840   92.3030 C   0  0  0  0  0  0  0  0  0  0  0  0
  145.3130  139.8810   91.1840 C   0  0  0  0  0  0  0  0  0  0  0  0
  139.6410  141.3980   90.4580 C   0  0  0  0  0  0  0  0  0  0  0  0
  139.5400  142.3090   91.4540 C   0  0  0  0  0  0  0  0  0  0  0  0
  138.7160  143.4690   91.2700 C   0  0  0  0  0  0  0  0  0  0  0  0
  138.5110  144.4780   92.1730 C   0  0  0  0  0  0  0  0  0  0  0  0
  137.6750  145.5470   91.8490 C   0  0  0  0  0  0  0  0  0  0  0  0
  137.0420  145.5890   90.5950 C   0  0  0  0  0  0  0  0  0  0  0  0
  137.2480  144.5620   89.6680 C   0  0  0  0  0  0  0  0  0  0  0  0
  136.4450  144.6220   88.0770 Cl  0  0  0  0  0  0  0  0  0  0  0  0
  138.0710  143.5080   89.9850 C   0  0  0  0  0  0  0  0  0  0  0  0
  138.6400  141.9900   89.1630 S   0  0  0  0  0  0  0  0  0  0  0  0
  142.3560  141.0410   90.8490 H   0  0  0  0  0  0  0  0  0  0  0  0
  142.0128  138.0786   90.5481 H   0  0  0  0  0  0  0  0  0  0  0  0
  143.6550  138.1621   88.9674 H   0  0  0  0  0  0  0  0  0  0  0  0
  143.7791  139.9519   89.2024 H   0  0  0  0  0  0  0  0  0  0  0  0
  144.9716  136.7928   90.2598 H   0  0  0  0  0  0  0  0  0  0  0  0
  146.1304  137.5406   91.4329 H   0  0  0  0  0  0  0  0  0  0  0  0
  143.4426  136.6871   91.8678 H   0  0  0  0  0  0  0  0  0  0  0  0
  144.6052  137.4421   93.0212 H   0  0  0  0  0  0  0  0  0  0  0  0
  142.5420  138.6921   92.8494 H   0  0  0  0  0  0  0  0  0  0  0  0
  143.6312  140.8226   92.2576 H   0  0  0  0  0  0  0  0  0  0  0  0
  144.6660  139.8019   93.2974 H   0  0  0  0  0  0  0  0  0  0  0  0
  145.2859  140.8353   90.6376 H   0  0  0  0  0  0  0  0  0  0  0  0
  146.3021  139.7531   91.6480 H   0  0  0  0  0  0  0  0  0  0  0  0
  140.0857  142.1611   92.3976 H   0  0  0  0  0  0  0  0  0  0  0  0
  139.0060  144.4456   93.1548 H   0  0  0  0  0  0  0  0  0  0  0  0
  137.5114  146.3569   92.5751 H   0  0  0  0  0  0  0  0  0  0  0  0
  136.3825  146.4321   90.3417 H   0  0  0  0  0  0  0  0  0  0  0  0
  1  2  2  0
  2  3  1  0
  3  4  1  0
  4  5  1  0
  5  6  1  0
  6  7  1  0
  7  8  1  0
  8  9  1  0
  9 10  1  0
 10 11  1  0
  2 12  1  0
 12 13  2  0
 13 14  1  0
 14 15  2  0
 15 16  1  0
 16 17  2  0
 17 18  1  0
 18 19  1  0
 18 20  2  0
 20 21  1  0
  9  4  1  0
 21 12  1  0
 11  6  1  0
 20 14  1  0
  3 22  1  0
  4 23  1  6
  5 24  1  0
  5 25  1  0
  7 26  1  0
  7 27  1  0
  8 28  1  0
  8 29  1  0
  9 30  1  0
 10 31  1  0
 10 32  1  0
 11 33  1  0
 11 34  1  0
 13 35  1  0
 15 36  1  0
 16 37  1  0
 17 38  1  0
M  END
>  <meeko>  (14)
{"is_sidechain": false}

>  <source_group>  (14)
CHRFAM7A at A face

>  <source_system>  (14)
CHRNA7_encenicline

>  <source_run>  (14)
hybrid_A_face_seed20260825_ex32

>  <source_seed>  (14)
20260825

>  <vina_pose_rank>  (14)
14

>  <vina_affinity_kcal_mol>  (14)
-6.0209999999999999

>  <vina_rmsd_to_crystal_angstrom>  (14)
8.6633999999999993

$$$$
CHRNA7_encenicline__hybrid_A_face_seed20260825_ex32__pose15
     RDKit          3D

 38 41  0  0  0  0  0  0  0  0999 V2000
  143.7760  139.4540   95.6030 O   0  0  0  0  0  0  0  0  0  0  0  0
  143.5920  140.1310   94.6490 C   0  0  0  0  0  0  0  0  0  0  0  0
  142.9160  141.4060   94.7910 N   0  0  0  0  0  0  0  0  0  0  0  0
  142.4610  141.8440   96.1310 C   0  0  1  0  0  0  0  0  0  0  0  0
  142.7330  143.3510   96.3120 C   0  0  0  0  0  0  0  0  0  0  0  0
  141.5530  144.0500   96.5800 N   0  0  0  0  0  0  0  0  0  0  0  0
  140.9480  143.5510   97.7130 C   0  0  0  0  0  0  0  0  0  0  0  0
  140.6090  142.0970   97.5580 C   0  0  0  0  0  0  0  0  0  0  0  0
  141.0250  141.6210   96.2690 C   0  0  0  0  0  0  0  0  0  0  0  0
  140.3370  142.4030   95.2450 C   0  0  0  0  0  0  0  0  0  0  0  0
  140.6660  143.9260   95.4830 C   0  0  0  0  0  0  0  0  0  0  0  0
  144.0740  139.6530   93.2750 C   0  0  0  0  0  0  0  0  0  0  0  0
  144.4250  138.3860   92.9570 C   0  0  0  0  0  0  0  0  0  0  0  0
  144.8570  138.0880   91.6210 C   0  0  0  0  0  0  0  0  0  0  0  0
  145.2420  136.8640   91.1400 C   0  0  0  0  0  0  0  0  0  0  0  0
  145.6400  136.7300   89.8100 C   0  0  0  0  0  0  0  0  0  0  0  0
  145.6460  137.8510   88.9620 C   0  0  0  0  0  0  0  0  0  0  0  0
  145.2530  139.1020   89.4460 C   0  0  0  0  0  0  0  0  0  0  0  0
  145.2610  140.5200   88.3640 Cl  0  0  0  0  0  0  0  0  0  0  0  0
  144.8610  139.2370   90.7560 C   0  0  0  0  0  0  0  0  0  0  0  0
  144.2840  140.5910   91.8240 S   0  0  0  0  0  0  0  0  0  0  0  0
  142.7610  141.9760   94.0040 H   0  0  0  0  0  0  0  0  0  0  0  0
  143.0086  141.2650   96.8893 H   0  0  0  0  0  0  0  0  0  0  0  0
  143.4311  143.4912   97.1504 H   0  0  0  0  0  0  0  0  0  0  0  0
  143.1640  143.7412   95.3782 H   0  0  0  0  0  0  0  0  0  0  0  0
  141.6323  143.6699   98.5660 H   0  0  0  0  0  0  0  0  0  0  0  0
  140.0144  144.1080   97.8807 H   0  0  0  0  0  0  0  0  0  0  0  0
  141.1227  141.5196   98.3408 H   0  0  0  0  0  0  0  0  0  0  0  0
  139.5199  141.9727   97.6500 H   0  0  0  0  0  0  0  0  0  0  0  0
  140.7912  140.5515   96.1618 H   0  0  0  0  0  0  0  0  0  0  0  0
  140.6858  142.0984   94.2472 H   0  0  0  0  0  0  0  0  0  0  0  0
  139.2515  142.2353   95.3049 H   0  0  0  0  0  0  0  0  0  0  0  0
  141.1366  144.3450   94.5814 H   0  0  0  0  0  0  0  0  0  0  0  0
  139.7365  144.4733   95.6985 H   0  0  0  0  0  0  0  0  0  0  0  0
  144.3798  137.5908   93.7157 H   0  0  0  0  0  0  0  0  0  0  0  0
  145.2372  135.9865   91.8033 H   0  0  0  0  0  0  0  0  0  0  0  0
  145.9492  135.7472   89.4247 H   0  0  0  0  0  0  0  0  0  0  0  0
  145.9611  137.7433   87.9136 H   0  0  0  0  0  0  0  0  0  0  0  0
  1  2  2  0
  2  3  1  0
  3  4  1  0
  4  5  1  0
  5  6  1  0
  6  7  1  0
  7  8  1  0
  8  9  1  0
  9 10  1  0
 10 11  1  0
  2 12  1  0
 12 13  2  0
 13 14  1  0
 14 15  2  0
 15 16  1  0
 16 17  2  0
 17 18  1  0
 18 19  1  0
 18 20  2  0
 20 21  1  0
  9  4  1  0
 21 12  1  0
 11  6  1  0
 20 14  1  0
  3 22  1  0
  4 23  1  1
  5 24  1  0
  5 25  1  0
  7 26  1  0
  7 27  1  0
  8 28  1  0
  8 29  1  0
  9 30  1  0
 10 31  1  0
 10 32  1  0
 11 33  1  0
 11 34  1  0
 13 35  1  0
 15 36  1  0
 16 37  1  0
 17 38  1  0
M  END
>  <meeko>  (15)
{"is_sidechain": false}

>  <source_group>  (15)
CHRFAM7A at A face

>  <source_system>  (15)
CHRNA7_encenicline

>  <source_run>  (15)
hybrid_A_face_seed20260825_ex32

>  <source_seed>  (15)
20260825

>  <vina_pose_rank>  (15)
15

>  <vina_affinity_kcal_mol>  (15)
-6.0149999999999997

>  <vina_rmsd_to_crystal_angstrom>  (15)
5.9710999999999999

$$$$
CHRNA7_encenicline__hybrid_A_face_seed20260825_ex32__pose16
     RDKit          3D

 38 41  0  0  0  0  0  0  0  0999 V2000
  148.0350  140.3410   91.4960 O   0  0  0  0  0  0  0  0  0  0  0  0
  147.7050  139.6490   90.5930 C   0  0  0  0  0  0  0  0  0  0  0  0
  148.1690  139.9450   89.2520 N   0  0  0  0  0  0  0  0  0  0  0  0
  149.0500  141.1140   89.0270 C   0  0  1  0  0  0  0  0  0  0  0  0
  150.4460  140.6410   88.5760 C   0  0  0  0  0  0  0  0  0  0  0  0
  150.7840  141.1760   87.3300 N   0  0  0  0  0  0  0  0  0  0  0  0
  150.7550  142.5530   87.3760 C   0  0  0  0  0  0  0  0  0  0  0  0
  149.3940  143.0600   87.7530 C   0  0  0  0  0  0  0  0  0  0  0  0
  148.4950  141.9630   87.9770 C   0  0  0  0  0  0  0  0  0  0  0  0
  148.4100  141.1780   86.7480 C   0  0  0  0  0  0  0  0  0  0  0  0
  149.8660  140.7220   86.3520 C   0  0  0  0  0  0  0  0  0  0  0  0
  146.7940  138.4450   90.8550 C   0  0  0  0  0  0  0  0  0  0  0  0
  147.1930  137.2330   91.3040 C   0  0  0  0  0  0  0  0  0  0  0  0
  146.2180  136.1980   91.5040 C   0  0  0  0  0  0  0  0  0  0  0  0
  146.4580  134.9260   91.9530 C   0  0  0  0  0  0  0  0  0  0  0  0
  145.4010  134.0260   92.0960 C   0  0  0  0  0  0  0  0  0  0  0  0
  144.0910  134.4240   91.7800 C   0  0  0  0  0  0  0  0  0  0  0  0
  143.8400  135.7210   91.3220 C   0  0  0  0  0  0  0  0  0  0  0  0
  142.1760  136.2210   90.9240 Cl  0  0  0  0  0  0  0  0  0  0  0  0
  144.8790  136.6100   91.1800 C   0  0  0  0  0  0  0  0  0  0  0  0
  145.0690  138.3370   90.6460 S   0  0  0  0  0  0  0  0  0  0  0  0
  147.9020  139.3730   88.4970 H   0  0  0  0  0  0  0  0  0  0  0  0
  149.1260  141.6776   89.9686 H   0  0  0  0  0  0  0  0  0  0  0  0
  151.1909  140.9631   89.3185 H   0  0  0  0  0  0  0  0  0  0  0  0
  150.4310  139.5444   88.4911 H   0  0  0  0  0  0  0  0  0  0  0  0
  151.4857  142.9016   88.1207 H   0  0  0  0  0  0  0  0  0  0  0  0
  151.0029  142.9379   86.3758 H   0  0  0  0  0  0  0  0  0  0  0  0
  149.4721  143.6581   88.6729 H   0  0  0  0  0  0  0  0  0  0  0  0
  149.0038  143.6788   86.9315 H   0  0  0  0  0  0  0  0  0  0  0  0
  147.5016  142.3349   88.2684 H   0  0  0  0  0  0  0  0  0  0  0  0
  147.7755  140.2948   86.9136 H   0  0  0  0  0  0  0  0  0  0  0  0
  147.9689  141.7821   85.9415 H   0  0  0  0  0  0  0  0  0  0  0  0
  149.9038  139.6241   86.2949 H   0  0  0  0  0  0  0  0  0  0  0  0
  150.1310  141.1488   85.3734 H   0  0  0  0  0  0  0  0  0  0  0  0
  148.2557  137.0418   91.5142 H   0  0  0  0  0  0  0  0  0  0  0  0
  147.4834  134.6142   92.2007 H   0  0  0  0  0  0  0  0  0  0  0  0
  145.5935  133.0046   92.4562 H   0  0  0  0  0  0  0  0  0  0  0  0
  143.2598  133.7125   91.8934 H   0  0  0  0  0  0  0  0  0  0  0  0
  1  2  2  0
  2  3  1  0
  3  4  1  0
  4  5  1  0
  5  6  1  0
  6  7  1  0
  7  8  1  0
  8  9  1  0
  9 10  1  0
 10 11  1  0
  2 12  1  0
 12 13  2  0
 13 14  1  0
 14 15  2  0
 15 16  1  0
 16 17  2  0
 17 18  1  0
 18 19  1  0
 18 20  2  0
 20 21  1  0
  9  4  1  0
 21 12  1  0
 11  6  1  0
 20 14  1  0
  3 22  1  0
  4 23  1  1
  5 24  1  0
  5 25  1  0
  7 26  1  0
  7 27  1  0
  8 28  1  0
  8 29  1  0
  9 30  1  0
 10 31  1  0
 10 32  1  0
 11 33  1  0
 11 34  1  0
 13 35  1  0
 15 36  1  0
 16 37  1  0
 17 38  1  0
M  END
>  <meeko>  (16)
{"is_sidechain": false}

>  <source_group>  (16)
CHRFAM7A at A face

>  <source_system>  (16)
CHRNA7_encenicline

>  <source_run>  (16)
hybrid_A_face_seed20260825_ex32

>  <source_seed>  (16)
20260825

>  <vina_pose_rank>  (16)
16

>  <vina_affinity_kcal_mol>  (16)
-5.9729999999999999

>  <vina_rmsd_to_crystal_angstrom>  (16)
7.1200000000000001

$$$$
CHRNA7_encenicline__hybrid_A_face_seed20260825_ex32__pose17
     RDKit          3D

 38 41  0  0  0  0  0  0  0  0999 V2000
  140.0060  140.7540   85.8940 O   0  0  0  0  0  0  0  0  0  0  0  0
  140.9630  140.4080   86.4990 C   0  0  0  0  0  0  0  0  0  0  0  0
  140.8160  139.8840   87.8430 N   0  0  0  0  0  0  0  0  0  0  0  0
  139.4670  139.7920   88.4450 C   0  0  1  0  0  0  0  0  0  0  0  0
  138.8060  138.4560   88.0510 C   0  0  0  0  0  0  0  0  0  0  0  0
  138.4700  137.7050   89.1800 N   0  0  0  0  0  0  0  0  0  0  0  0
  137.6180  138.4190   89.9950 C   0  0  0  0  0  0  0  0  0  0  0  0
  138.2450  139.7020   90.4520 C   0  0  0  0  0  0  0  0  0  0  0  0
  139.5640  139.8400   89.9010 C   0  0  0  0  0  0  0  0  0  0  0  0
  140.3700  138.7060   90.3450 C   0  0  0  0  0  0  0  0  0  0  0  0
  139.6440  137.3800   89.9030 C   0  0  0  0  0  0  0  0  0  0  0  0
  142.3480  140.5150   85.8510 C   0  0  0  0  0  0  0  0  0  0  0  0
  142.6320  141.1470   84.6890 C   0  0  0  0  0  0  0  0  0  0  0  0
  143.9830  141.1650   84.2060 C   0  0  0  0  0  0  0  0  0  0  0  0
  144.4330  141.7590   83.0570 C   0  0  0  0  0  0  0  0  0  0  0  0
  145.7840  141.6900   82.7170 C   0  0  0  0  0  0  0  0  0  0  0  0
  146.6850  141.0110   83.5550 C   0  0  0  0  0  0  0  0  0  0  0  0
  146.2330  140.4030   84.7300 C   0  0  0  0  0  0  0  0  0  0  0  0
  147.3810  139.5440   85.7900 Cl  0  0  0  0  0  0  0  0  0  0  0  0
  144.9020  140.4690   85.0670 C   0  0  0  0  0  0  0  0  0  0  0  0
  143.8580  139.8690   86.4290 S   0  0  0  0  0  0  0  0  0  0  0  0
  141.6070  139.5920   88.3510 H   0  0  0  0  0  0  0  0  0  0  0  0
  138.8656  140.6369   88.0782 H   0  0  0  0  0  0  0  0  0  0  0  0
  137.8929  138.6641   87.4740 H   0  0  0  0  0  0  0  0  0  0  0  0
  139.5225  137.8776   87.4492 H   0  0  0  0  0  0  0  0  0  0  0  0
  136.6982  138.6490   89.4372 H   0  0  0  0  0  0  0  0  0  0  0  0
  137.3943  137.8079   90.8819 H   0  0  0  0  0  0  0  0  0  0  0  0
  137.6237  140.5470   90.1205 H   0  0  0  0  0  0  0  0  0  0  0  0
  138.3166  139.6925   91.5496 H   0  0  0  0  0  0  0  0  0  0  0  0
  140.0175  140.7883   90.2252 H   0  0  0  0  0  0  0  0  0  0  0  0
  141.3674  138.7554   89.8839 H   0  0  0  0  0  0  0  0  0  0  0  0
  140.4856  138.7283   91.4387 H   0  0  0  0  0  0  0  0  0  0  0  0
  140.3166  136.7888   89.2642 H   0  0  0  0  0  0  0  0  0  0  0  0
  139.3762  136.7932   90.7940 H   0  0  0  0  0  0  0  0  0  0  0  0
  141.8331  141.6434   84.1187 H   0  0  0  0  0  0  0  0  0  0  0  0
  143.7281  142.2912   82.4014 H   0  0  0  0  0  0  0  0  0  0  0  0
  146.1440  142.1668   81.7934 H   0  0  0  0  0  0  0  0  0  0  0  0
  147.7501  140.9577   83.2853 H   0  0  0  0  0  0  0  0  0  0  0  0
  1  2  2  0
  2  3  1  0
  3  4  1  0
  4  5  1  0
  5  6  1  0
  6  7  1  0
  7  8  1  0
  8  9  1  0
  9 10  1  0
 10 11  1  0
  2 12  1  0
 12 13  2  0
 13 14  1  0
 14 15  2  0
 15 16  1  0
 16 17  2  0
 17 18  1  0
 18 19  1  0
 18 20  2  0
 20 21  1  0
  9  4  1  0
 21 12  1  0
 11  6  1  0
 20 14  1  0
  3 22  1  0
  4 23  1  6
  5 24  1  0
  5 25  1  0
  7 26  1  0
  7 27  1  0
  8 28  1  0
  8 29  1  0
  9 30  1  0
 10 31  1  0
 10 32  1  0
 11 33  1  0
 11 34  1  0
 13 35  1  0
 15 36  1  0
 16 37  1  0
 17 38  1  0
M  END
>  <meeko>  (17)
{"is_sidechain": false}

>  <source_group>  (17)
CHRFAM7A at A face

>  <source_system>  (17)
CHRNA7_encenicline

>  <source_run>  (17)
hybrid_A_face_seed20260825_ex32

>  <source_seed>  (17)
20260825

>  <vina_pose_rank>  (17)
17

>  <vina_affinity_kcal_mol>  (17)
-5.9509999999999996

>  <vina_rmsd_to_crystal_angstrom>  (17)
6.3494999999999999

$$$$
CHRNA7_encenicline__hybrid_A_face_seed20260825_ex32__pose18
     RDKit          3D

 38 41  0  0  0  0  0  0  0  0999 V2000
  138.5340  139.7870   88.0940 O   0  0  0  0  0  0  0  0  0  0  0  0
  138.8690  140.9060   87.8970 C   0  0  0  0  0  0  0  0  0  0  0  0
  139.4540  141.2690   86.6210 N   0  0  0  0  0  0  0  0  0  0  0  0
  139.6290  140.2330   85.5780 C   0  0  1  0  0  0  0  0  0  0  0  0
  139.9760  140.8960   84.2310 C   0  0  0  0  0  0  0  0  0  0  0  0
  141.2010  140.4350   83.7410 N   0  0  0  0  0  0  0  0  0  0  0  0
  141.1720  139.0660   83.5870 C   0  0  0  0  0  0  0  0  0  0  0  0
  140.8960  138.3750   84.8900 C   0  0  0  0  0  0  0  0  0  0  0  0
  140.7230  139.3380   85.9420 C   0  0  0  0  0  0  0  0  0  0  0  0
  141.9470  140.1280   86.0480 C   0  0  0  0  0  0  0  0  0  0  0  0
  142.2360  140.7830   84.6440 C   0  0  0  0  0  0  0  0  0  0  0  0
  138.6760  141.9580   88.9940 C   0  0  0  0  0  0  0  0  0  0  0  0
  138.0350  143.1420   88.8520 C   0  0  0  0  0  0  0  0  0  0  0  0
  137.9310  144.0280   89.9760 C   0  0  0  0  0  0  0  0  0  0  0  0
  137.3170  145.2520   89.9970 C   0  0  0  0  0  0  0  0  0  0  0  0
  137.3000  146.0050   91.1720 C   0  0  0  0  0  0  0  0  0  0  0  0
  137.9120  145.5060   92.3350 C   0  0  0  0  0  0  0  0  0  0  0  0
  138.5390  144.2560   92.3200 C   0  0  0  0  0  0  0  0  0  0  0  0
  139.3120  143.6280   93.7990 Cl  0  0  0  0  0  0  0  0  0  0  0  0
  138.5580  143.5140   91.1640 C   0  0  0  0  0  0  0  0  0  0  0  0
  139.2160  141.8990   90.6480 S   0  0  0  0  0  0  0  0  0  0  0  0
  139.7320  142.1980   86.4490 H   0  0  0  0  0  0  0  0  0  0  0  0
  138.6902  139.6665   85.4906 H   0  0  0  0  0  0  0  0  0  0  0  0
  139.1867  140.6612   83.5017 H   0  0  0  0  0  0  0  0  0  0  0  0
  140.0499  141.9824   84.3866 H   0  0  0  0  0  0  0  0  0  0  0  0
  140.3820  138.8032   82.8680 H   0  0  0  0  0  0  0  0  0  0  0  0
  142.1563  138.7374   83.2222 H   0  0  0  0  0  0  0  0  0  0  0  0
  139.9794  137.7743   84.7945 H   0  0  0  0  0  0  0  0  0  0  0  0
  141.7495  137.7266   85.1373 H   0  0  0  0  0  0  0  0  0  0  0  0
  140.5044  138.8316   86.8937 H   0  0  0  0  0  0  0  0  0  0  0  0
  141.8176  140.9146   86.8059 H   0  0  0  0  0  0  0  0  0  0  0  0
  142.7883  139.4854   86.3469 H   0  0  0  0  0  0  0  0  0  0  0  0
  142.2775  141.8770   84.7508 H   0  0  0  0  0  0  0  0  0  0  0  0
  143.1989  140.4166   84.2585 H   0  0  0  0  0  0  0  0  0  0  0  0
  137.5974  143.4226   87.8826 H   0  0  0  0  0  0  0  0  0  0  0  0
  136.8370  145.6419   89.0873 H   0  0  0  0  0  0  0  0  0  0  0  0
  136.8079  146.9886   91.1880 H   0  0  0  0  0  0  0  0  0  0  0  0
  137.8977  146.1008   93.2602 H   0  0  0  0  0  0  0  0  0  0  0  0
  1  2  2  0
  2  3  1  0
  3  4  1  0
  4  5  1  0
  5  6  1  0
  6  7  1  0
  7  8  1  0
  8  9  1  0
  9 10  1  0
 10 11  1  0
  2 12  1  0
 12 13  2  0
 13 14  1  0
 14 15  2  0
 15 16  1  0
 16 17  2  0
 17 18  1  0
 18 19  1  0
 18 20  2  0
 20 21  1  0
  9  4  1  0
 21 12  1  0
 11  6  1  0
 20 14  1  0
  3 22  1  0
  4 23  1  6
  5 24  1  0
  5 25  1  0
  7 26  1  0
  7 27  1  0
  8 28  1  0
  8 29  1  0
  9 30  1  0
 10 31  1  0
 10 32  1  0
 11 33  1  0
 11 34  1  0
 13 35  1  0
 15 36  1  0
 16 37  1  0
 17 38  1  0
M  END
>  <meeko>  (18)
{"is_sidechain": false}

>  <source_group>  (18)
CHRFAM7A at A face

>  <source_system>  (18)
CHRNA7_encenicline

>  <source_run>  (18)
hybrid_A_face_seed20260825_ex32

>  <source_seed>  (18)
20260825

>  <vina_pose_rank>  (18)
18

>  <vina_affinity_kcal_mol>  (18)
-5.9480000000000004

>  <vina_rmsd_to_crystal_angstrom>  (18)
8.4610000000000003

$$$$
CHRNA7_encenicline__hybrid_A_face_seed20260825_ex32__pose19
     RDKit          3D

 38 41  0  0  0  0  0  0  0  0999 V2000
  144.6050  137.4160   91.7410 O   0  0  0  0  0  0  0  0  0  0  0  0
  144.2050  138.2910   91.0510 C   0  0  0  0  0  0  0  0  0  0  0  0
  145.1340  139.2690   90.5170 N   0  0  0  0  0  0  0  0  0  0  0  0
  146.5730  139.1610   90.8460 C   0  0  1  0  0  0  0  0  0  0  0  0
  147.3390  138.5400   89.6610 C   0  0  0  0  0  0  0  0  0  0  0  0
  148.3430  139.3970   89.2020 N   0  0  0  0  0  0  0  0  0  0  0  0
  149.2250  139.6890   90.2190 C   0  0  0  0  0  0  0  0  0  0  0  0
  148.5320  140.3510   91.3730 C   0  0  0  0  0  0  0  0  0  0  0  0
  147.1280  140.4870   91.1030 C   0  0  0  0  0  0  0  0  0  0  0  0
  146.9670  141.2940   89.8960 C   0  0  0  0  0  0  0  0  0  0  0  0
  147.7630  140.5990   88.7270 C   0  0  0  0  0  0  0  0  0  0  0  0
  142.7100  138.3780   90.7260 C   0  0  0  0  0  0  0  0  0  0  0  0
  141.8460  137.3370   90.6880 C   0  0  0  0  0  0  0  0  0  0  0  0
  140.4670  137.5750   90.3690 C   0  0  0  0  0  0  0  0  0  0  0  0
  139.4730  136.6360   90.2920 C   0  0  0  0  0  0  0  0  0  0  0  0
  138.1720  137.0220   89.9680 C   0  0  0  0  0  0  0  0  0  0  0  0
  137.8810  138.3740   89.7190 C   0  0  0  0  0  0  0  0  0  0  0  0
  138.8920  139.3380   89.7980 C   0  0  0  0  0  0  0  0  0  0  0  0
  138.5170  141.0530   89.4840 Cl  0  0  0  0  0  0  0  0  0  0  0  0
  140.1740  138.9600   90.1170 C   0  0  0  0  0  0  0  0  0  0  0  0
  141.7750  139.7940   90.3360 S   0  0  0  0  0  0  0  0  0  0  0  0
  144.8100  139.9980   89.9400 H   0  0  0  0  0  0  0  0  0  0  0  0
  146.6774  138.5274   91.7391 H   0  0  0  0  0  0  0  0  0  0  0  0
  147.7961  137.5937   89.9859 H   0  0  0  0  0  0  0  0  0  0  0  0
  146.6279  138.3661   88.8400 H   0  0  0  0  0  0  0  0  0  0  0  0
  149.6895  138.7552   90.5687 H   0  0  0  0  0  0  0  0  0  0  0  0
  149.9853  140.3817   89.8289 H   0  0  0  0  0  0  0  0  0  0  0  0
  148.6696  139.7399   92.2772 H   0  0  0  0  0  0  0  0  0  0  0  0
  148.9649  141.3511   91.5229 H   0  0  0  0  0  0  0  0  0  0  0  0
  146.6177  140.9586   91.9557 H   0  0  0  0  0  0  0  0  0  0  0  0
  145.9011  141.3604   89.6323 H   0  0  0  0  0  0  0  0  0  0  0  0
  147.3522  142.3104   90.0652 H   0  0  0  0  0  0  0  0  0  0  0  0
  147.0754  140.3724   87.8988 H   0  0  0  0  0  0  0  0  0  0  0  0
  148.5555  141.2734   88.3705 H   0  0  0  0  0  0  0  0  0  0  0  0
  142.1978  136.3166   90.8999 H   0  0  0  0  0  0  0  0  0  0  0  0
  139.7004  135.5773   90.4856 H   0  0  0  0  0  0  0  0  0  0  0  0
  137.3737  136.2676   89.9075 H   0  0  0  0  0  0  0  0  0  0  0  0
  136.8550  138.6754   89.4611 H   0  0  0  0  0  0  0  0  0  0  0  0
  1  2  2  0
  2  3  1  0
  3  4  1  0
  4  5  1  0
  5  6  1  0
  6  7  1  0
  7  8  1  0
  8  9  1  0
  9 10  1  0
 10 11  1  0
  2 12  1  0
 12 13  2  0
 13 14  1  0
 14 15  2  0
 15 16  1  0
 16 17  2  0
 17 18  1  0
 18 19  1  0
 18 20  2  0
 20 21  1  0
  9  4  1  0
 21 12  1  0
 11  6  1  0
 20 14  1  0
  3 22  1  0
  4 23  1  1
  5 24  1  0
  5 25  1  0
  7 26  1  0
  7 27  1  0
  8 28  1  0
  8 29  1  0
  9 30  1  0
 10 31  1  0
 10 32  1  0
 11 33  1  0
 11 34  1  0
 13 35  1  0
 15 36  1  0
 16 37  1  0
 17 38  1  0
M  END
>  <meeko>  (19)
{"is_sidechain": false}

>  <source_group>  (19)
CHRFAM7A at A face

>  <source_system>  (19)
CHRNA7_encenicline

>  <source_run>  (19)
hybrid_A_face_seed20260825_ex32

>  <source_seed>  (19)
20260825

>  <vina_pose_rank>  (19)
19

>  <vina_affinity_kcal_mol>  (19)
-5.8620000000000001

>  <vina_rmsd_to_crystal_angstrom>  (19)
7.2747000000000002

$$$$
CHRNA7_encenicline__hybrid_A_face_seed20260825_ex32__pose20
     RDKit          3D

 38 41  0  0  0  0  0  0  0  0999 V2000
  144.4830  142.3670   95.1370 O   0  0  0  0  0  0  0  0  0  0  0  0
  143.6320  141.8860   94.4680 C   0  0  0  0  0  0  0  0  0  0  0  0
  142.2430  142.2080   94.7270 N   0  0  0  0  0  0  0  0  0  0  0  0
  141.9040  143.1350   95.8310 C   0  0  1  0  0  0  0  0  0  0  0  0
  140.6430  143.9450   95.4690 C   0  0  0  0  0  0  0  0  0  0  0  0
  139.6290  143.7500   96.4100 N   0  0  0  0  0  0  0  0  0  0  0  0
  140.0650  144.1120   97.6660 C   0  0  0  0  0  0  0  0  0  0  0  0
  141.2580  143.3050   98.0860 C   0  0  0  0  0  0  0  0  0  0  0  0
  141.6270  142.3810   97.0500 C   0  0  0  0  0  0  0  0  0  0  0  0
  140.4930  141.4970   96.7950 C   0  0  0  0  0  0  0  0  0  0  0  0
  139.2460  142.3870   96.4230 C   0  0  0  0  0  0  0  0  0  0  0  0
  144.0120  140.9300   93.3310 C   0  0  0  0  0  0  0  0  0  0  0  0
  144.3140  141.2890   92.0630 C   0  0  0  0  0  0  0  0  0  0  0  0
  144.6540  140.2760   91.1040 C   0  0  0  0  0  0  0  0  0  0  0  0
  144.9850  140.4730   89.7890 C   0  0  0  0  0  0  0  0  0  0  0  0
  145.2910  139.3830   88.9750 C   0  0  0  0  0  0  0  0  0  0  0  0
  145.2610  138.0810   89.5040 C   0  0  0  0  0  0  0  0  0  0  0  0
  144.9260  137.8730   90.8450 C   0  0  0  0  0  0  0  0  0  0  0  0
  144.8920  136.2190   91.5110 Cl  0  0  0  0  0  0  0  0  0  0  0  0
  144.6230  138.9460   91.6490 C   0  0  0  0  0  0  0  0  0  0  0  0
  144.1450  139.1950   93.3850 S   0  0  0  0  0  0  0  0  0  0  0  0
  141.5300  141.8150   94.1730 H   0  0  0  0  0  0  0  0  0  0  0  0
  142.7570  143.8110   95.9901 H   0  0  0  0  0  0  0  0  0  0  0  0
  140.9006  145.0139   95.4357 H   0  0  0  0  0  0  0  0  0  0  0  0
  140.2789  143.6026   94.4891 H   0  0  0  0  0  0  0  0  0  0  0  0
  140.3392  145.1772   97.6563 H   0  0  0  0  0  0  0  0  0  0  0  0
  139.2512  143.9244   98.3819 H   0  0  0  0  0  0  0  0  0  0  0  0
  142.1017  143.9821   98.2853 H   0  0  0  0  0  0  0  0  0  0  0  0
  141.0045  142.7396   98.9949 H   0  0  0  0  0  0  0  0  0  0  0  0
  142.5109  141.8002   97.3521 H   0  0  0  0  0  0  0  0  0  0  0  0
  140.7292  140.8202   95.9607 H   0  0  0  0  0  0  0  0  0  0  0  0
  140.2748  140.8929   97.6880 H   0  0  0  0  0  0  0  0  0  0  0  0
  138.8742  142.1006   95.4281 H   0  0  0  0  0  0  0  0  0  0  0  0
  138.4508  142.2355   97.1678 H   0  0  0  0  0  0  0  0  0  0  0  0
  144.2993  142.3487   91.7684 H   0  0  0  0  0  0  0  0  0  0  0  0
  145.0093  141.4919   89.3751 H   0  0  0  0  0  0  0  0  0  0  0  0
  145.5558  139.5419   87.9192 H   0  0  0  0  0  0  0  0  0  0  0  0
  145.5021  137.2224   88.8601 H   0  0  0  0  0  0  0  0  0  0  0  0
  1  2  2  0
  2  3  1  0
  3  4  1  0
  4  5  1  0
  5  6  1  0
  6  7  1  0
  7  8  1  0
  8  9  1  0
  9 10  1  0
 10 11  1  0
  2 12  1  0
 12 13  2  0
 13 14  1  0
 14 15  2  0
 15 16  1  0
 16 17  2  0
 17 18  1  0
 18 19  1  0
 18 20  2  0
 20 21  1  0
  9  4  1  0
 21 12  1  0
 11  6  1  0
 20 14  1  0
  3 22  1  0
  4 23  1  1
  5 24  1  0
  5 25  1  0
  7 26  1  0
  7 27  1  0
  8 28  1  0
  8 29  1  0
  9 30  1  0
 10 31  1  0
 10 32  1  0
 11 33  1  0
 11 34  1  0
 13 35  1  0
 15 36  1  0
 16 37  1  0
 17 38  1  0
M  END
>  <meeko>  (20)
{"is_sidechain": false}

>  <source_group>  (20)
CHRFAM7A at A face

>  <source_system>  (20)
CHRNA7_encenicline

>  <source_run>  (20)
hybrid_A_face_seed20260825_ex32

>  <source_seed>  (20)
20260825

>  <vina_pose_rank>  (20)
20

>  <vina_affinity_kcal_mol>  (20)
-5.8010000000000002

>  <vina_rmsd_to_crystal_angstrom>  (20)
6.2205000000000004

$$$$
