CHRNA7_encenicline__hybrid_A_face_seed20260825_ex32__pose01


 22 25  0  0  0  0  0  0  0  0999 V2000
  142.0340  140.3940   90.9120 O   0  0  0  0  0  0  0  0  0  0  0  0
  142.1600  139.2330   90.7140 C   0  0  0  0  0  0  0  0  0  0  0  0
  141.0080  138.4370   90.3410 N   0  0  0  0  0  0  0  0  0  0  0  0
  141.1040  137.4720   90.1730 H   0  0  0  0  0  0  0  0  0  0  0  0
  143.5430  138.5870   90.8510 C   0  0  0  0  0  0  0  0  0  0  0  0
  143.7840  137.2790   91.1020 C   0  0  0  0  0  0  0  0  0  0  0  0
  145.1400  136.8180   91.2010 C   0  0  0  0  0  0  0  0  0  0  0  0
  145.5500  135.5340   91.4460 C   0  0  0  0  0  0  0  0  0  0  0  0
  146.9110  135.2370   91.5160 C   0  0  0  0  0  0  0  0  0  0  0  0
  147.8630  136.2550   91.3340 C   0  0  0  0  0  0  0  0  0  0  0  0
  147.4510  137.5670   91.0810 C   0  0  0  0  0  0  0  0  0  0  0  0
  148.6620  138.8540   90.8490 Cl  0  0  0  0  0  0  0  0  0  0  0  0
  146.1100  137.8620   91.0130 C   0  0  0  0  0  0  0  0  0  0  0  0
  145.1040  139.3480   90.7220 S   0  0  0  0  0  0  0  0  0  0  0  0
  139.6830  139.0870   90.2160 C   0  0  0  0  0  0  0  0  0  0  0  0
  139.3910  139.4040   88.7360 C   0  0  0  0  0  0  0  0  0  0  0  0
  138.2170  138.7790   88.3070 N   0  0  0  0  0  0  0  0  0  0  0  0
  137.1500  139.1780   89.0840 C   0  0  0  0  0  0  0  0  0  0  0  0
  137.3660  138.8330   90.5280 C   0  0  0  0  0  0  0  0  0  0  0  0
  138.6390  138.1920   90.7060 C   0  0  0  0  0  0  0  0  0  0  0  0
  138.6590  136.9760   89.8970 C   0  0  0  0  0  0  0  0  0  0  0  0
  138.3640  137.3730   88.4000 C   0  0  0  0  0  0  0  0  0  0  0  0
  1  2  2  0
  2  3  1  0
  3 15  1  0
 15 16  1  0
 16 17  1  0
 17 18  1  0
 18 19  1  0
 19 20  1  0
 20 21  1  0
 21 22  1  0
  2  5  1  0
  5  6  2  0
  6  7  1  0
  7  8  2  0
  8  9  1  0
  9 10  2  0
 10 11  1  0
 11 12  1  0
 11 13  2  0
 13 14  1  0
 20 15  1  0
 14  5  1  0
 22 17  1  0
 13  7  1  0
  3  4  1  0
M  END
> <meeko>
{"is_sidechain": false}

> <source_group>
CHRFAM7A at A face

> <source_system>
CHRNA7_encenicline

> <source_run>
hybrid_A_face_seed20260825_ex32

> <source_seed>
20260825

> <vina_pose_rank>
1

> <vina_affinity_kcal_mol>
-7.5430000000000001

> <vina_rmsd_to_crystal_angstrom>
1.9981

> <minimizedAffinity>
-7.53851

> <CNNscore>
0.8049125075

> <CNNaffinity>
6.6061863899

> <CNN_VS>
5.3174018860

> <CNNaffinity_variance>
0.2530995905

$$$$
CHRNA7_encenicline__hybrid_A_face_seed20260825_ex32__pose02


 22 25  0  0  0  0  0  0  0  0999 V2000
  142.3960  138.1280   90.8720 O   0  0  0  0  0  0  0  0  0  0  0  0
  142.4270  139.1860   90.3420 C   0  0  0  0  0  0  0  0  0  0  0  0
  141.1910  139.8180   89.9220 N   0  0  0  0  0  0  0  0  0  0  0  0
  141.2070  140.6980   89.4830 H   0  0  0  0  0  0  0  0  0  0  0  0
  143.7740  139.8780   90.1070 C   0  0  0  0  0  0  0  0  0  0  0  0
  144.3250  140.1500   88.9020 C   0  0  0  0  0  0  0  0  0  0  0  0
  145.5990  140.8080   88.8400 C   0  0  0  0  0  0  0  0  0  0  0  0
  146.2870  141.1530   87.7070 C   0  0  0  0  0  0  0  0  0  0  0  0
  147.5230  141.7910   87.8070 C   0  0  0  0  0  0  0  0  0  0  0  0
  148.0640  142.0800   89.0720 C   0  0  0  0  0  0  0  0  0  0  0  0
  147.3670  141.7310   90.2320 C   0  0  0  0  0  0  0  0  0  0  0  0
  148.0570  142.1020   91.8340 Cl  0  0  0  0  0  0  0  0  0  0  0  0
  146.1490  141.1020   90.1360 C   0  0  0  0  0  0  0  0  0  0  0  0
  144.9000  140.4690   91.2960 S   0  0  0  0  0  0  0  0  0  0  0  0
  139.9020  139.1280   90.1610 C   0  0  0  0  0  0  0  0  0  0  0  0
  138.8180  140.1560   90.5390 C   0  0  0  0  0  0  0  0  0  0  0  0
  137.7430  140.1090   89.6470 N   0  0  0  0  0  0  0  0  0  0  0  0
  137.1940  138.8460   89.6230 C   0  0  0  0  0  0  0  0  0  0  0  0
  138.2020  137.8180   89.2010 C   0  0  0  0  0  0  0  0  0  0  0  0
  139.4730  138.4370   88.9490 C   0  0  0  0  0  0  0  0  0  0  0  0
  139.3010  139.4290   87.8910 C   0  0  0  0  0  0  0  0  0  0  0  0
  138.1900  140.4490   88.3460 C   0  0  0  0  0  0  0  0  0  0  0  0
  1  2  2  0
  2  3  1  0
  3 15  1  0
 15 16  1  0
 16 17  1  0
 17 18  1  0
 18 19  1  0
 19 20  1  0
 20 21  1  0
 21 22  1  0
  2  5  1  0
  5  6  2  0
  6  7  1  0
  7  8  2  0
  8  9  1  0
  9 10  2  0
 10 11  1  0
 11 12  1  0
 11 13  2  0
 13 14  1  0
 20 15  1  0
 14  5  1  0
 22 17  1  0
 13  7  1  0
  3  4  1  0
M  END
> <meeko>
{"is_sidechain": false}

> <source_group>
CHRFAM7A at A face

> <source_system>
CHRNA7_encenicline

> <source_run>
hybrid_A_face_seed20260825_ex32

> <source_seed>
20260825

> <vina_pose_rank>
2

> <vina_affinity_kcal_mol>
-7.5010000000000003

> <vina_rmsd_to_crystal_angstrom>
4.4892000000000003

> <minimizedAffinity>
-7.49018

> <CNNscore>
0.5492608547

> <CNNaffinity>
5.9976425171

> <CNN_VS>
3.2942702770

> <CNNaffinity_variance>
0.0863551497

$$$$
CHRNA7_encenicline__hybrid_A_face_seed20260825_ex32__pose03


 22 25  0  0  0  0  0  0  0  0999 V2000
  142.8070  138.7990   91.0970 O   0  0  0  0  0  0  0  0  0  0  0  0
  142.6700  139.4930   90.1470 C   0  0  0  0  0  0  0  0  0  0  0  0
  141.3360  139.8160   89.6790 N   0  0  0  0  0  0  0  0  0  0  0  0
  141.2130  140.3940   88.8920 H   0  0  0  0  0  0  0  0  0  0  0  0
  143.9050  140.0440   89.4260 C   0  0  0  0  0  0  0  0  0  0  0  0
  144.9420  140.6860   90.0120 C   0  0  0  0  0  0  0  0  0  0  0  0
  146.0350  141.1460   89.2030 C   0  0  0  0  0  0  0  0  0  0  0  0
  147.1530  141.8050   89.6390 C   0  0  0  0  0  0  0  0  0  0  0  0
  148.1350  142.1930   88.7270 C   0  0  0  0  0  0  0  0  0  0  0  0
  147.9780  141.9070   87.3600 C   0  0  0  0  0  0  0  0  0  0  0  0
  146.8390  141.2320   86.9080 C   0  0  0  0  0  0  0  0  0  0  0  0
  146.6450  140.8700   85.1740 Cl  0  0  0  0  0  0  0  0  0  0  0  0
  145.8700  140.8500   87.8050 C   0  0  0  0  0  0  0  0  0  0  0  0
  144.2720  139.9860   87.7260 S   0  0  0  0  0  0  0  0  0  0  0  0
  140.1600  139.2700   90.3940 C   0  0  0  0  0  0  0  0  0  0  0  0
  139.0850  140.3640   90.5490 C   0  0  0  0  0  0  0  0  0  0  0  0
  137.8800  139.9770   89.9550 N   0  0  0  0  0  0  0  0  0  0  0  0
  137.4270  138.8010   90.5130 C   0  0  0  0  0  0  0  0  0  0  0  0
  138.4190  137.6910   90.3320 C   0  0  0  0  0  0  0  0  0  0  0  0
  139.5810  138.1660   89.6350 C   0  0  0  0  0  0  0  0  0  0  0  0
  139.1610  138.6740   88.3310 C   0  0  0  0  0  0  0  0  0  0  0  0
  138.0730  139.7910   88.5640 C   0  0  0  0  0  0  0  0  0  0  0  0
  1  2  2  0
  2  3  1  0
  3 15  1  0
 15 16  1  0
 16 17  1  0
 17 18  1  0
 18 19  1  0
 19 20  1  0
 20 21  1  0
 21 22  1  0
  2  5  1  0
  5  6  2  0
  6  7  1  0
  7  8  2  0
  8  9  1  0
  9 10  2  0
 10 11  1  0
 11 12  1  0
 11 13  2  0
 13 14  1  0
 20 15  1  0
 14  5  1  0
 22 17  1  0
 13  7  1  0
  3  4  1  0
M  END
> <meeko>
{"is_sidechain": false}

> <source_group>
CHRFAM7A at A face

> <source_system>
CHRNA7_encenicline

> <source_run>
hybrid_A_face_seed20260825_ex32

> <source_seed>
20260825

> <vina_pose_rank>
3

> <vina_affinity_kcal_mol>
-7.4390000000000001

> <vina_rmsd_to_crystal_angstrom>
4.9166999999999996

> <minimizedAffinity>
-7.44313

> <CNNscore>
0.7376435995

> <CNNaffinity>
6.3658866882

> <CNN_VS>
4.6957554817

> <CNNaffinity_variance>
0.2342176437

$$$$
CHRNA7_encenicline__hybrid_A_face_seed20260825_ex32__pose04


 22 25  0  0  0  0  0  0  0  0999 V2000
  141.7010  140.8950   91.3990 O   0  0  0  0  0  0  0  0  0  0  0  0
  142.0670  139.9570   90.7740 C   0  0  0  0  0  0  0  0  0  0  0  0
  141.0930  139.0940   90.1350 N   0  0  0  0  0  0  0  0  0  0  0  0
  141.3880  138.3140   89.6120 H   0  0  0  0  0  0  0  0  0  0  0  0
  143.5670  139.6700   90.6450 C   0  0  0  0  0  0  0  0  0  0  0  0
  144.4270  140.3120   89.8210 C   0  0  0  0  0  0  0  0  0  0  0  0
  145.8110  139.9330   89.8120 C   0  0  0  0  0  0  0  0  0  0  0  0
  146.8030  140.4810   89.0430 C   0  0  0  0  0  0  0  0  0  0  0  0
  148.1100  140.0030   89.1440 C   0  0  0  0  0  0  0  0  0  0  0  0
  148.4090  138.9570   90.0340 C   0  0  0  0  0  0  0  0  0  0  0  0
  147.4010  138.3940   90.8220 C   0  0  0  0  0  0  0  0  0  0  0  0
  147.7860  137.0690   91.9520 Cl  0  0  0  0  0  0  0  0  0  0  0  0
  146.1130  138.8630   90.7250 C   0  0  0  0  0  0  0  0  0  0  0  0
  144.5120  138.4840   91.4980 S   0  0  0  0  0  0  0  0  0  0  0  0
  139.6500  139.3940   90.2760 C   0  0  0  0  0  0  0  0  0  0  0  0
  139.0670  139.8240   88.9150 C   0  0  0  0  0  0  0  0  0  0  0  0
  138.0210  138.9840   88.5240 N   0  0  0  0  0  0  0  0  0  0  0  0
  137.0240  138.9870   89.4750 C   0  0  0  0  0  0  0  0  0  0  0  0
  137.5330  138.5160   90.8050 C   0  0  0  0  0  0  0  0  0  0  0  0
  138.9330  138.2030   90.7230 C   0  0  0  0  0  0  0  0  0  0  0  0
  139.1130  137.1550   89.7220 C   0  0  0  0  0  0  0  0  0  0  0  0
  138.5060  137.6640   88.3590 C   0  0  0  0  0  0  0  0  0  0  0  0
  1  2  2  0
  2  3  1  0
  3 15  1  0
 15 16  1  0
 16 17  1  0
 17 18  1  0
 18 19  1  0
 19 20  1  0
 20 21  1  0
 21 22  1  0
  2  5  1  0
  5  6  2  0
  6  7  1  0
  7  8  2  0
  8  9  1  0
  9 10  2  0
 10 11  1  0
 11 12  1  0
 11 13  2  0
 13 14  1  0
 20 15  1  0
 14  5  1  0
 22 17  1  0
 13  7  1  0
  3  4  1  0
M  END
> <meeko>
{"is_sidechain": false}

> <source_group>
CHRFAM7A at A face

> <source_system>
CHRNA7_encenicline

> <source_run>
hybrid_A_face_seed20260825_ex32

> <source_seed>
20260825

> <vina_pose_rank>
4

> <vina_affinity_kcal_mol>
-6.9829999999999997

> <vina_rmsd_to_crystal_angstrom>
3.3241999999999998

> <minimizedAffinity>
-6.98765

> <CNNscore>
0.8314730525

> <CNNaffinity>
6.2181572914

> <CNN_VS>
5.1702303886

> <CNNaffinity_variance>
0.3413071334

$$$$
CHRNA7_encenicline__hybrid_A_face_seed20260825_ex32__pose05


 22 25  0  0  0  0  0  0  0  0999 V2000
  144.6870  139.4930   92.0900 O   0  0  0  0  0  0  0  0  0  0  0  0
  144.3170  138.5220   91.5220 C   0  0  0  0  0  0  0  0  0  0  0  0
  145.2310  137.4150   91.3170 N   0  0  0  0  0  0  0  0  0  0  0  0
  144.9310  136.6040   90.8480 H   0  0  0  0  0  0  0  0  0  0  0  0
  142.8740  138.4450   91.0130 C   0  0  0  0  0  0  0  0  0  0  0  0
  142.1120  137.3290   90.9590 C   0  0  0  0  0  0  0  0  0  0  0  0
  140.7700  137.4130   90.4570 C   0  0  0  0  0  0  0  0  0  0  0  0
  139.8750  136.3830   90.3400 C   0  0  0  0  0  0  0  0  0  0  0  0
  138.5980  136.6210   89.8290 C   0  0  0  0  0  0  0  0  0  0  0  0
  138.2310  137.9190   89.4330 C   0  0  0  0  0  0  0  0  0  0  0  0
  139.1400  138.9750   89.5510 C   0  0  0  0  0  0  0  0  0  0  0  0
  138.6670  140.6190   89.0490 Cl  0  0  0  0  0  0  0  0  0  0  0  0
  140.3970  138.7430   90.0540 C   0  0  0  0  0  0  0  0  0  0  0  0
  141.8820  139.7350   90.3930 S   0  0  0  0  0  0  0  0  0  0  0  0
  146.6210  137.5150   91.8200 C   0  0  0  0  0  0  0  0  0  0  0  0
  147.0590  136.1660   92.4230 C   0  0  0  0  0  0  0  0  0  0  0  0
  148.1950  135.6690   91.7780 N   0  0  0  0  0  0  0  0  0  0  0  0
  149.2310  136.5720   91.8660 C   0  0  0  0  0  0  0  0  0  0  0  0
  148.8680  137.8840   91.2350 C   0  0  0  0  0  0  0  0  0  0  0  0
  147.5270  137.8400   90.7230 C   0  0  0  0  0  0  0  0  0  0  0  0
  147.4480  136.7720   89.7290 C   0  0  0  0  0  0  0  0  0  0  0  0
  147.8990  135.4260   90.4140 C   0  0  0  0  0  0  0  0  0  0  0  0
  1  2  2  0
  2  3  1  0
  3 15  1  0
 15 16  1  0
 16 17  1  0
 17 18  1  0
 18 19  1  0
 19 20  1  0
 20 21  1  0
 21 22  1  0
  2  5  1  0
  5  6  2  0
  6  7  1  0
  7  8  2  0
  8  9  1  0
  9 10  2  0
 10 11  1  0
 11 12  1  0
 11 13  2  0
 13 14  1  0
 20 15  1  0
 14  5  1  0
 22 17  1  0
 13  7  1  0
  3  4  1  0
M  END
> <meeko>
{"is_sidechain": false}

> <source_group>
CHRFAM7A at A face

> <source_system>
CHRNA7_encenicline

> <source_run>
hybrid_A_face_seed20260825_ex32

> <source_seed>
20260825

> <vina_pose_rank>
5

> <vina_affinity_kcal_mol>
-6.6289999999999996

> <vina_rmsd_to_crystal_angstrom>
7.6822999999999997

> <minimizedAffinity>
-6.61903

> <CNNscore>
0.2267102301

> <CNNaffinity>
4.8671188354

> <CNN_VS>
1.1034256220

> <CNNaffinity_variance>
0.4543101788

$$$$
CHRNA7_encenicline__hybrid_A_face_seed20260825_ex32__pose06


 22 25  0  0  0  0  0  0  0  0999 V2000
  142.2560  137.8570   90.7870 O   0  0  0  0  0  0  0  0  0  0  0  0
  142.3030  139.0280   90.6140 C   0  0  0  0  0  0  0  0  0  0  0  0
  141.0940  139.7570   90.2860 N   0  0  0  0  0  0  0  0  0  0  0  0
  141.1240  140.7300   90.1440 H   0  0  0  0  0  0  0  0  0  0  0  0
  143.6440  139.7590   90.7440 C   0  0  0  0  0  0  0  0  0  0  0  0
  144.2610  140.0810   91.9040 C   0  0  0  0  0  0  0  0  0  0  0  0
  145.5210  140.7680   91.8660 C   0  0  0  0  0  0  0  0  0  0  0  0
  146.2700  141.1610   92.9440 C   0  0  0  0  0  0  0  0  0  0  0  0
  147.4810  141.8260   92.7470 C   0  0  0  0  0  0  0  0  0  0  0  0
  147.9320  142.0920   91.4440 C   0  0  0  0  0  0  0  0  0  0  0  0
  147.1730  141.6930   90.3390 C   0  0  0  0  0  0  0  0  0  0  0  0
  147.7530  142.0320   88.6880 Cl  0  0  0  0  0  0  0  0  0  0  0  0
  145.9800  141.0390   90.5300 C   0  0  0  0  0  0  0  0  0  0  0  0
  144.6770  140.3420   89.4700 S   0  0  0  0  0  0  0  0  0  0  0  0
  139.8110  139.0260   90.1680 C   0  0  0  0  0  0  0  0  0  0  0  0
  138.6420  139.9480   90.5660 C   0  0  0  0  0  0  0  0  0  0  0  0
  137.7240  140.0810   89.5210 N   0  0  0  0  0  0  0  0  0  0  0  0
  137.2340  138.8470   89.1530 C   0  0  0  0  0  0  0  0  0  0  0  0
  138.3350  137.9340   88.6990 C   0  0  0  0  0  0  0  0  0  0  0  0
  139.6050  138.5980   88.7880 C   0  0  0  0  0  0  0  0  0  0  0  0
  139.5640  139.7860   87.9390 C   0  0  0  0  0  0  0  0  0  0  0  0
  138.3560  140.6850   88.4060 C   0  0  0  0  0  0  0  0  0  0  0  0
  1  2  2  0
  2  3  1  0
  3 15  1  0
 15 16  1  0
 16 17  1  0
 17 18  1  0
 18 19  1  0
 19 20  1  0
 20 21  1  0
 21 22  1  0
  2  5  1  0
  5  6  2  0
  6  7  1  0
  7  8  2  0
  8  9  1  0
  9 10  2  0
 10 11  1  0
 11 12  1  0
 11 13  2  0
 13 14  1  0
 20 15  1  0
 14  5  1  0
 22 17  1  0
 13  7  1  0
  3  4  1  0
M  END
> <meeko>
{"is_sidechain": false}

> <source_group>
CHRFAM7A at A face

> <source_system>
CHRNA7_encenicline

> <source_run>
hybrid_A_face_seed20260825_ex32

> <source_seed>
20260825

> <vina_pose_rank>
6

> <vina_affinity_kcal_mol>
-6.4500000000000002

> <vina_rmsd_to_crystal_angstrom>
4.2569999999999997

> <minimizedAffinity>
-6.48174

> <CNNscore>
0.5280742049

> <CNNaffinity>
6.1662383080

> <CNN_VS>
3.2562313080

> <CNNaffinity_variance>
0.1213185787

$$$$
CHRNA7_encenicline__hybrid_A_face_seed20260825_ex32__pose07


 22 25  0  0  0  0  0  0  0  0999 V2000
  144.4430  140.1400   90.5020 O   0  0  0  0  0  0  0  0  0  0  0  0
  144.0600  139.0310   90.6670 C   0  0  0  0  0  0  0  0  0  0  0  0
  145.0060  137.9840   91.0020 N   0  0  0  0  0  0  0  0  0  0  0  0
  144.6950  137.0620   91.1440 H   0  0  0  0  0  0  0  0  0  0  0  0
  142.5660  138.7180   90.5290 C   0  0  0  0  0  0  0  0  0  0  0  0
  141.5930  139.6130   90.2440 C   0  0  0  0  0  0  0  0  0  0  0  0
  140.2320  139.1680   90.1440 C   0  0  0  0  0  0  0  0  0  0  0  0
  139.1370  139.9420   89.8630 C   0  0  0  0  0  0  0  0  0  0  0  0
  137.8690  139.3630   89.8000 C   0  0  0  0  0  0  0  0  0  0  0  0
  137.7150  137.9850   90.0270 C   0  0  0  0  0  0  0  0  0  0  0  0
  138.8280  137.1880   90.3130 C   0  0  0  0  0  0  0  0  0  0  0  0
  138.6260  135.4400   90.5970 Cl  0  0  0  0  0  0  0  0  0  0  0  0
  140.0780  137.7570   90.3760 C   0  0  0  0  0  0  0  0  0  0  0  0
  141.7710  137.1790   90.6990 S   0  0  0  0  0  0  0  0  0  0  0  0
  146.4440  138.3150   91.1300 C   0  0  0  0  0  0  0  0  0  0  0  0
  147.0930  137.4280   92.2100 C   0  0  0  0  0  0  0  0  0  0  0  0
  148.1490  136.6790   91.6820 N   0  0  0  0  0  0  0  0  0  0  0  0
  149.1000  137.5120   91.1360 C   0  0  0  0  0  0  0  0  0  0  0  0
  148.5250  138.3540   90.0350 C   0  0  0  0  0  0  0  0  0  0  0  0
  147.1280  138.0680   89.8640 C   0  0  0  0  0  0  0  0  0  0  0  0
  146.9850  136.6520   89.5330 C   0  0  0  0  0  0  0  0  0  0  0  0
  147.6590  135.8060   90.6800 C   0  0  0  0  0  0  0  0  0  0  0  0
  1  2  2  0
  2  3  1  0
  3 15  1  0
 15 16  1  0
 16 17  1  0
 17 18  1  0
 18 19  1  0
 19 20  1  0
 20 21  1  0
 21 22  1  0
  2  5  1  0
  5  6  2  0
  6  7  1  0
  7  8  2  0
  8  9  1  0
  9 10  2  0
 10 11  1  0
 11 12  1  0
 11 13  2  0
 13 14  1  0
 20 15  1  0
 14  5  1  0
 22 17  1  0
 13  7  1  0
  3  4  1  0
M  END
> <meeko>
{"is_sidechain": false}

> <source_group>
CHRFAM7A at A face

> <source_system>
CHRNA7_encenicline

> <source_run>
hybrid_A_face_seed20260825_ex32

> <source_seed>
20260825

> <vina_pose_rank>
7

> <vina_affinity_kcal_mol>
-6.4089999999999998

> <vina_rmsd_to_crystal_angstrom>
7.5918999999999999

> <minimizedAffinity>
-6.42445

> <CNNscore>
0.3343789279

> <CNNaffinity>
5.6616044044

> <CNN_VS>
1.8931212425

> <CNNaffinity_variance>
0.2312361747

$$$$
CHRNA7_encenicline__hybrid_A_face_seed20260825_ex32__pose08


 22 25  0  0  0  0  0  0  0  0999 V2000
  144.1390  142.0510   92.6270 O   0  0  0  0  0  0  0  0  0  0  0  0
  143.8140  141.0960   93.2480 C   0  0  0  0  0  0  0  0  0  0  0  0
  142.8900  141.2380   94.3560 N   0  0  0  0  0  0  0  0  0  0  0  0
  142.6130  140.4490   94.8760 H   0  0  0  0  0  0  0  0  0  0  0  0
  144.3730  139.7200   92.8700 C   0  0  0  0  0  0  0  0  0  0  0  0
  143.6420  138.6440   92.4980 C   0  0  0  0  0  0  0  0  0  0  0  0
  144.3090  137.4170   92.1700 C   0  0  0  0  0  0  0  0  0  0  0  0
  143.7180  136.2450   91.7760 C   0  0  0  0  0  0  0  0  0  0  0  0
  144.5040  135.1280   91.4900 C   0  0  0  0  0  0  0  0  0  0  0  0
  145.9020  135.2040   91.6070 C   0  0  0  0  0  0  0  0  0  0  0  0
  146.5120  136.3970   92.0080 C   0  0  0  0  0  0  0  0  0  0  0  0
  148.2870  136.4880   92.1520 Cl  0  0  0  0  0  0  0  0  0  0  0  0
  145.7400  137.4990   92.2900 C   0  0  0  0  0  0  0  0  0  0  0  0
  146.0370  139.2100   92.8260 S   0  0  0  0  0  0  0  0  0  0  0  0
  142.3650  142.5790   94.7000 C   0  0  0  0  0  0  0  0  0  0  0  0
  140.8630  142.6580   94.3620 C   0  0  0  0  0  0  0  0  0  0  0  0
  140.1050  142.9680   95.4940 N   0  0  0  0  0  0  0  0  0  0  0  0
  140.5200  144.1650   96.0350 C   0  0  0  0  0  0  0  0  0  0  0  0
  141.9640  144.1140   96.4360 C   0  0  0  0  0  0  0  0  0  0  0  0
  142.5240  142.8270   96.1300 C   0  0  0  0  0  0  0  0  0  0  0  0
  141.7690  141.8110   96.8590 C   0  0  0  0  0  0  0  0  0  0  0  0
  140.2500  141.9420   96.4600 C   0  0  0  0  0  0  0  0  0  0  0  0
  1  2  2  0
  2  3  1  0
  3 15  1  0
 15 16  1  0
 16 17  1  0
 17 18  1  0
 18 19  1  0
 19 20  1  0
 20 21  1  0
 21 22  1  0
  2  5  1  0
  5  6  2  0
  6  7  1  0
  7  8  2  0
  8  9  1  0
  9 10  2  0
 10 11  1  0
 11 12  1  0
 11 13  2  0
 13 14  1  0
 20 15  1  0
 14  5  1  0
 22 17  1  0
 13  7  1  0
  3  4  1  0
M  END
> <meeko>
{"is_sidechain": false}

> <source_group>
CHRFAM7A at A face

> <source_system>
CHRNA7_encenicline

> <source_run>
hybrid_A_face_seed20260825_ex32

> <source_seed>
20260825

> <vina_pose_rank>
8

> <vina_affinity_kcal_mol>
-6.3369999999999997

> <vina_rmsd_to_crystal_angstrom>
4.9663000000000004

> <minimizedAffinity>
-6.33935

> <CNNscore>
0.1969431043

> <CNNaffinity>
4.9960312843

> <CNN_VS>
0.9839339256

> <CNNaffinity_variance>
0.7180812359

$$$$
CHRNA7_encenicline__hybrid_A_face_seed20260825_ex32__pose09


 22 25  0  0  0  0  0  0  0  0999 V2000
  146.2880  140.5340   92.4150 O   0  0  0  0  0  0  0  0  0  0  0  0
  145.2230  140.0170   92.4440 C   0  0  0  0  0  0  0  0  0  0  0  0
  145.0610  138.6700   91.9320 N   0  0  0  0  0  0  0  0  0  0  0  0
  144.1790  138.2330   91.9550 H   0  0  0  0  0  0  0  0  0  0  0  0
  144.0270  140.7780   93.0280 C   0  0  0  0  0  0  0  0  0  0  0  0
  142.9260  141.1660   92.3440 C   0  0  0  0  0  0  0  0  0  0  0  0
  141.8820  141.8730   93.0300 C   0  0  0  0  0  0  0  0  0  0  0  0
  140.7110  142.3300   92.4860 C   0  0  0  0  0  0  0  0  0  0  0  0
  139.7870  143.0070   93.2840 C   0  0  0  0  0  0  0  0  0  0  0  0
  140.0590  143.2200   94.6460 C   0  0  0  0  0  0  0  0  0  0  0  0
  141.2520  142.7550   95.2080 C   0  0  0  0  0  0  0  0  0  0  0  0
  141.5900  143.0260   96.9370 Cl  0  0  0  0  0  0  0  0  0  0  0  0
  142.1640  142.0890   94.4240 C   0  0  0  0  0  0  0  0  0  0  0  0
  143.7930  141.3190   94.6660 S   0  0  0  0  0  0  0  0  0  0  0  0
  146.2320  137.9580   91.3730 C   0  0  0  0  0  0  0  0  0  0  0  0
  146.7640  136.9370   92.3990 C   0  0  0  0  0  0  0  0  0  0  0  0
  146.7540  135.6410   91.8760 N   0  0  0  0  0  0  0  0  0  0  0  0
  147.5130  135.5810   90.7290 C   0  0  0  0  0  0  0  0  0  0  0  0
  146.9930  136.5170   89.6780 C   0  0  0  0  0  0  0  0  0  0  0  0
  145.8480  137.2320   90.1660 C   0  0  0  0  0  0  0  0  0  0  0  0
  144.8160  136.2620   90.5220 C   0  0  0  0  0  0  0  0  0  0  0  0
  145.4230  135.2600   91.5770 C   0  0  0  0  0  0  0  0  0  0  0  0
  1  2  2  0
  2  3  1  0
  3 15  1  0
 15 16  1  0
 16 17  1  0
 17 18  1  0
 18 19  1  0
 19 20  1  0
 20 21  1  0
 21 22  1  0
  2  5  1  0
  5  6  2  0
  6  7  1  0
  7  8  2  0
  8  9  1  0
  9 10  2  0
 10 11  1  0
 11 12  1  0
 11 13  2  0
 13 14  1  0
 20 15  1  0
 14  5  1  0
 22 17  1  0
 13  7  1  0
  3  4  1  0
M  END
> <meeko>
{"is_sidechain": false}

> <source_group>
CHRFAM7A at A face

> <source_system>
CHRNA7_encenicline

> <source_run>
hybrid_A_face_seed20260825_ex32

> <source_seed>
20260825

> <vina_pose_rank>
9

> <vina_affinity_kcal_mol>
-6.3129999999999997

> <vina_rmsd_to_crystal_angstrom>
7.8403

> <minimizedAffinity>
-6.31600

> <CNNscore>
0.0881407261

> <CNNaffinity>
4.2803158760

> <CNN_VS>
0.3772701621

> <CNNaffinity_variance>
0.3699762523

$$$$
CHRNA7_encenicline__hybrid_A_face_seed20260825_ex32__pose10


 22 25  0  0  0  0  0  0  0  0999 V2000
  144.5820  139.2860   91.6420 O   0  0  0  0  0  0  0  0  0  0  0  0
  144.0380  139.3370   90.5920 C   0  0  0  0  0  0  0  0  0  0  0  0
  144.7650  139.8020   89.4260 N   0  0  0  0  0  0  0  0  0  0  0  0
  144.3210  139.8460   88.5490 H   0  0  0  0  0  0  0  0  0  0  0  0
  142.5710  138.9080   90.4750 C   0  0  0  0  0  0  0  0  0  0  0  0
  141.5310  139.7180   90.1720 C   0  0  0  0  0  0  0  0  0  0  0  0
  140.2070  139.1690   90.0970 C   0  0  0  0  0  0  0  0  0  0  0  0
  139.0550  139.8500   89.8020 C   0  0  0  0  0  0  0  0  0  0  0  0
  137.8350  139.1750   89.7680 C   0  0  0  0  0  0  0  0  0  0  0  0
  137.7860  137.7960   90.0360 C   0  0  0  0  0  0  0  0  0  0  0  0
  138.9580  137.0950   90.3370 C   0  0  0  0  0  0  0  0  0  0  0  0
  138.8900  135.3460   90.6740 Cl  0  0  0  0  0  0  0  0  0  0  0  0
  140.1610  137.7580   90.3710 C   0  0  0  0  0  0  0  0  0  0  0  0
  141.8950  137.3190   90.6970 S   0  0  0  0  0  0  0  0  0  0  0  0
  146.1810  140.2110   89.5660 C   0  0  0  0  0  0  0  0  0  0  0  0
  147.1050  139.0890   89.0530 C   0  0  0  0  0  0  0  0  0  0  0  0
  147.9260  139.5440   88.0170 N   0  0  0  0  0  0  0  0  0  0  0  0
  148.6870  140.6110   88.4420 C   0  0  0  0  0  0  0  0  0  0  0  0
  147.8260  141.7520   88.8950 C   0  0  0  0  0  0  0  0  0  0  0  0
  146.4360  141.4100   88.7740 C   0  0  0  0  0  0  0  0  0  0  0  0
  146.1580  141.1030   87.3730 C   0  0  0  0  0  0  0  0  0  0  0  0
  147.1270  139.9470   86.9190 C   0  0  0  0  0  0  0  0  0  0  0  0
  1  2  2  0
  2  3  1  0
  3 15  1  0
 15 16  1  0
 16 17  1  0
 17 18  1  0
 18 19  1  0
 19 20  1  0
 20 21  1  0
 21 22  1  0
  2  5  1  0
  5  6  2  0
  6  7  1  0
  7  8  2  0
  8  9  1  0
  9 10  2  0
 10 11  1  0
 11 12  1  0
 11 13  2  0
 13 14  1  0
 20 15  1  0
 14  5  1  0
 22 17  1  0
 13  7  1  0
  3  4  1  0
M  END
> <meeko>
{"is_sidechain": false}

> <source_group>
CHRFAM7A at A face

> <source_system>
CHRNA7_encenicline

> <source_run>
hybrid_A_face_seed20260825_ex32

> <source_seed>
20260825

> <vina_pose_rank>
10

> <vina_affinity_kcal_mol>
-6.2960000000000003

> <vina_rmsd_to_crystal_angstrom>
7.0023

> <minimizedAffinity>
-6.29922

> <CNNscore>
0.5359070897

> <CNNaffinity>
5.9463400841

> <CNN_VS>
3.1866858006

> <CNNaffinity_variance>
0.1271024793

$$$$
CHRNA7_encenicline__hybrid_A_face_seed20260825_ex32__pose11


 22 25  0  0  0  0  0  0  0  0999 V2000
  145.9040  140.7110   92.1980 O   0  0  0  0  0  0  0  0  0  0  0  0
  144.9380  140.0840   92.4750 C   0  0  0  0  0  0  0  0  0  0  0  0
  144.8790  138.6720   92.1520 N   0  0  0  0  0  0  0  0  0  0  0  0
  144.0810  138.1440   92.3810 H   0  0  0  0  0  0  0  0  0  0  0  0
  143.7630  140.7740   93.1760 C   0  0  0  0  0  0  0  0  0  0  0  0
  143.5560  140.8220   94.5130 C   0  0  0  0  0  0  0  0  0  0  0  0
  142.4060  141.5100   95.0250 C   0  0  0  0  0  0  0  0  0  0  0  0
  142.0570  141.6500   96.3420 C   0  0  0  0  0  0  0  0  0  0  0  0
  140.9000  142.3500   96.6870 C   0  0  0  0  0  0  0  0  0  0  0  0
  140.0920  142.9100   95.6840 C   0  0  0  0  0  0  0  0  0  0  0  0
  140.4430  142.7720   94.3370 C   0  0  0  0  0  0  0  0  0  0  0  0
  139.4150  143.4870   93.0680 Cl  0  0  0  0  0  0  0  0  0  0  0  0
  141.5820  142.0830   93.9940 C   0  0  0  0  0  0  0  0  0  0  0  0
  142.4380  141.6410   92.4530 S   0  0  0  0  0  0  0  0  0  0  0  0
  146.0290  138.0310   91.4740 C   0  0  0  0  0  0  0  0  0  0  0  0
  146.7020  137.0210   92.4240 C   0  0  0  0  0  0  0  0  0  0  0  0
  146.7080  135.7360   91.8760 N   0  0  0  0  0  0  0  0  0  0  0  0
  147.3630  135.7360   90.6630 C   0  0  0  0  0  0  0  0  0  0  0  0
  146.7030  136.6620   89.6850 C   0  0  0  0  0  0  0  0  0  0  0  0
  145.5730  137.3090   90.2900 C   0  0  0  0  0  0  0  0  0  0  0  0
  144.6270  136.2800   90.7160 C   0  0  0  0  0  0  0  0  0  0  0  0
  145.3760  135.2920   91.6880 C   0  0  0  0  0  0  0  0  0  0  0  0
  1  2  2  0
  2  3  1  0
  3 15  1  0
 15 16  1  0
 16 17  1  0
 17 18  1  0
 18 19  1  0
 19 20  1  0
 20 21  1  0
 21 22  1  0
  2  5  1  0
  5  6  2  0
  6  7  1  0
  7  8  2  0
  8  9  1  0
  9 10  2  0
 10 11  1  0
 11 12  1  0
 11 13  2  0
 13 14  1  0
 20 15  1  0
 14  5  1  0
 22 17  1  0
 13  7  1  0
  3  4  1  0
M  END
> <meeko>
{"is_sidechain": false}

> <source_group>
CHRFAM7A at A face

> <source_system>
CHRNA7_encenicline

> <source_run>
hybrid_A_face_seed20260825_ex32

> <source_seed>
20260825

> <vina_pose_rank>
11

> <vina_affinity_kcal_mol>
-6.1589999999999998

> <vina_rmsd_to_crystal_angstrom>
7.8642000000000003

> <minimizedAffinity>
-6.16819

> <CNNscore>
0.1109057069

> <CNNaffinity>
4.4117884636

> <CNN_VS>
0.4892925322

> <CNNaffinity_variance>
0.3482321203

$$$$
CHRNA7_encenicline__hybrid_A_face_seed20260825_ex32__pose12


 22 25  0  0  0  0  0  0  0  0999 V2000
  140.3070  140.8680   85.9490 O   0  0  0  0  0  0  0  0  0  0  0  0
  141.1840  140.4150   86.6030 C   0  0  0  0  0  0  0  0  0  0  0  0
  140.8900  139.8210   87.8920 N   0  0  0  0  0  0  0  0  0  0  0  0
  141.6130  139.4410   88.4400 H   0  0  0  0  0  0  0  0  0  0  0  0
  142.6230  140.4590   86.0750 C   0  0  0  0  0  0  0  0  0  0  0  0
  143.7270  140.0730   86.7540 C   0  0  0  0  0  0  0  0  0  0  0  0
  145.0130  140.1710   86.1250 C   0  0  0  0  0  0  0  0  0  0  0  0
  146.2200  139.8220   86.6720 C   0  0  0  0  0  0  0  0  0  0  0  0
  147.3930  139.9770   85.9330 C   0  0  0  0  0  0  0  0  0  0  0  0
  147.3370  140.4900   84.6260 C   0  0  0  0  0  0  0  0  0  0  0  0
  146.1090  140.8470   84.0610 C   0  0  0  0  0  0  0  0  0  0  0  0
  146.0440  141.4950   82.4010 Cl  0  0  0  0  0  0  0  0  0  0  0  0
  144.9520  140.6960   84.7870 C   0  0  0  0  0  0  0  0  0  0  0  0
  143.1800  140.9990   84.5170 S   0  0  0  0  0  0  0  0  0  0  0  0
  139.4920  139.7920   88.3790 C   0  0  0  0  0  0  0  0  0  0  0  0
  138.8000  138.4960   87.9110 C   0  0  0  0  0  0  0  0  0  0  0  0
  138.3330  137.7520   88.9980 N   0  0  0  0  0  0  0  0  0  0  0  0
  137.4530  138.5000   89.7490 C   0  0  0  0  0  0  0  0  0  0  0  0
  138.1030  139.7440   90.2760 C   0  0  0  0  0  0  0  0  0  0  0  0
  139.4690  139.8200   89.8380 C   0  0  0  0  0  0  0  0  0  0  0  0
  140.1770  138.6420   90.3320 C   0  0  0  0  0  0  0  0  0  0  0  0
  139.4250  137.3590   89.8100 C   0  0  0  0  0  0  0  0  0  0  0  0
  1  2  2  0
  2  3  1  0
  3 15  1  0
 15 16  1  0
 16 17  1  0
 17 18  1  0
 18 19  1  0
 19 20  1  0
 20 21  1  0
 21 22  1  0
  2  5  1  0
  5  6  2  0
  6  7  1  0
  7  8  2  0
  8  9  1  0
  9 10  2  0
 10 11  1  0
 11 12  1  0
 11 13  2  0
 13 14  1  0
 20 15  1  0
 14  5  1  0
 22 17  1  0
 13  7  1  0
  3  4  1  0
M  END
> <meeko>
{"is_sidechain": false}

> <source_group>
CHRFAM7A at A face

> <source_system>
CHRNA7_encenicline

> <source_run>
hybrid_A_face_seed20260825_ex32

> <source_seed>
20260825

> <vina_pose_rank>
12

> <vina_affinity_kcal_mol>
-6.085

> <vina_rmsd_to_crystal_angstrom>
5.9116999999999997

> <minimizedAffinity>
-6.11072

> <CNNscore>
0.8450523019

> <CNNaffinity>
6.6846065521

> <CNN_VS>
5.6488423347

> <CNNaffinity_variance>
0.2408899516

$$$$
CHRNA7_encenicline__hybrid_A_face_seed20260825_ex32__pose13


 22 25  0  0  0  0  0  0  0  0999 V2000
  141.2800  136.2550   90.7070 O   0  0  0  0  0  0  0  0  0  0  0  0
  141.7670  137.3300   90.6090 C   0  0  0  0  0  0  0  0  0  0  0  0
  140.9260  138.4810   90.3390 N   0  0  0  0  0  0  0  0  0  0  0  0
  141.3220  139.3770   90.2580 H   0  0  0  0  0  0  0  0  0  0  0  0
  143.2820  137.4940   90.7710 C   0  0  0  0  0  0  0  0  0  0  0  0
  143.9260  138.6460   91.0700 C   0  0  0  0  0  0  0  0  0  0  0  0
  145.3560  138.6430   91.1920 C   0  0  0  0  0  0  0  0  0  0  0  0
  146.1530  139.7170   91.4900 C   0  0  0  0  0  0  0  0  0  0  0  0
  147.5360  139.5590   91.5730 C   0  0  0  0  0  0  0  0  0  0  0  0
  148.1140  138.2970   91.3520 C   0  0  0  0  0  0  0  0  0  0  0  0
  147.3060  137.1960   91.0500 C   0  0  0  0  0  0  0  0  0  0  0  0
  148.0440  135.5970   90.7720 Cl  0  0  0  0  0  0  0  0  0  0  0  0
  145.9430  137.3500   90.9660 C   0  0  0  0  0  0  0  0  0  0  0  0
  144.5170  136.2770   90.6170 S   0  0  0  0  0  0  0  0  0  0  0  0
  139.4650  138.2950   90.1870 C   0  0  0  0  0  0  0  0  0  0  0  0
  138.7210  139.5510   90.6800 C   0  0  0  0  0  0  0  0  0  0  0  0
  137.9330  140.1040   89.6670 N   0  0  0  0  0  0  0  0  0  0  0  0
  137.0210  139.1770   89.2090 C   0  0  0  0  0  0  0  0  0  0  0  0
  137.7050  137.9590   88.6630 C   0  0  0  0  0  0  0  0  0  0  0  0
  139.1310  138.0900   88.7800 C   0  0  0  0  0  0  0  0  0  0  0  0
  139.5480  139.2720   88.0320 C   0  0  0  0  0  0  0  0  0  0  0  0
  138.7590  140.5160   88.5920 C   0  0  0  0  0  0  0  0  0  0  0  0
  1  2  2  0
  2  3  1  0
  3 15  1  0
 15 16  1  0
 16 17  1  0
 17 18  1  0
 18 19  1  0
 19 20  1  0
 20 21  1  0
 21 22  1  0
  2  5  1  0
  5  6  2  0
  6  7  1  0
  7  8  2  0
  8  9  1  0
  9 10  2  0
 10 11  1  0
 11 12  1  0
 11 13  2  0
 13 14  1  0
 20 15  1  0
 14  5  1  0
 22 17  1  0
 13  7  1  0
  3  4  1  0
M  END
> <meeko>
{"is_sidechain": false}

> <source_group>
CHRFAM7A at A face

> <source_system>
CHRNA7_encenicline

> <source_run>
hybrid_A_face_seed20260825_ex32

> <source_seed>
20260825

> <vina_pose_rank>
13

> <vina_affinity_kcal_mol>
-6.0350000000000001

> <vina_rmsd_to_crystal_angstrom>
3.1048

> <minimizedAffinity>
-6.04924

> <CNNscore>
0.5366807580

> <CNNaffinity>
6.2838187218

> <CNN_VS>
3.3724045753

> <CNNaffinity_variance>
0.6323420405

$$$$
CHRNA7_encenicline__hybrid_A_face_seed20260825_ex32__pose14


 22 25  0  0  0  0  0  0  0  0999 V2000
  139.9490  139.0660   90.3430 O   0  0  0  0  0  0  0  0  0  0  0  0
  140.4770  140.1150   90.4980 C   0  0  0  0  0  0  0  0  0  0  0  0
  141.9090  140.1740   90.7210 N   0  0  0  0  0  0  0  0  0  0  0  0
  142.3560  141.0410   90.8490 H   0  0  0  0  0  0  0  0  0  0  0  0
  139.6410  141.3980   90.4580 C   0  0  0  0  0  0  0  0  0  0  0  0
  139.5400  142.3090   91.4540 C   0  0  0  0  0  0  0  0  0  0  0  0
  138.7160  143.4690   91.2700 C   0  0  0  0  0  0  0  0  0  0  0  0
  138.5110  144.4780   92.1730 C   0  0  0  0  0  0  0  0  0  0  0  0
  137.6750  145.5470   91.8490 C   0  0  0  0  0  0  0  0  0  0  0  0
  137.0420  145.5890   90.5950 C   0  0  0  0  0  0  0  0  0  0  0  0
  137.2480  144.5620   89.6680 C   0  0  0  0  0  0  0  0  0  0  0  0
  136.4450  144.6220   88.0770 Cl  0  0  0  0  0  0  0  0  0  0  0  0
  138.0710  143.5080   89.9850 C   0  0  0  0  0  0  0  0  0  0  0  0
  138.6400  141.9900   89.1630 S   0  0  0  0  0  0  0  0  0  0  0  0
  142.6930  138.9180   90.7550 C   0  0  0  0  0  0  0  0  0  0  0  0
  143.8130  138.9700   89.6970 C   0  0  0  0  0  0  0  0  0  0  0  0
  145.0710  138.8140   90.2840 N   0  0  0  0  0  0  0  0  0  0  0  0
  145.1370  137.6190   90.9670 C   0  0  0  0  0  0  0  0  0  0  0  0
  144.1000  137.5500   92.0500 C   0  0  0  0  0  0  0  0  0  0  0  0
  143.3120  138.7500   92.0660 C   0  0  0  0  0  0  0  0  0  0  0  0
  144.2030  139.8840   92.3030 C   0  0  0  0  0  0  0  0  0  0  0  0
  145.3130  139.8810   91.1840 C   0  0  0  0  0  0  0  0  0  0  0  0
  1  2  2  0
  2  3  1  0
  3 15  1  0
 15 16  1  0
 16 17  1  0
 17 18  1  0
 18 19  1  0
 19 20  1  0
 20 21  1  0
 21 22  1  0
  2  5  1  0
  5  6  2  0
  6  7  1  0
  7  8  2  0
  8  9  1  0
  9 10  2  0
 10 11  1  0
 11 12  1  0
 11 13  2  0
 13 14  1  0
 20 15  1  0
 14  5  1  0
 22 17  1  0
 13  7  1  0
  3  4  1  0
M  END
> <meeko>
{"is_sidechain": false}

> <source_group>
CHRFAM7A at A face

> <source_system>
CHRNA7_encenicline

> <source_run>
hybrid_A_face_seed20260825_ex32

> <source_seed>
20260825

> <vina_pose_rank>
14

> <vina_affinity_kcal_mol>
-6.0209999999999999

> <vina_rmsd_to_crystal_angstrom>
8.6633999999999993

> <minimizedAffinity>
-6.01565

> <CNNscore>
0.0793520361

> <CNNaffinity>
3.9366767406

> <CNN_VS>
0.3123833239

> <CNNaffinity_variance>
1.8252739906

$$$$
CHRNA7_encenicline__hybrid_A_face_seed20260825_ex32__pose15


 22 25  0  0  0  0  0  0  0  0999 V2000
  143.7760  139.4540   95.6030 O   0  0  0  0  0  0  0  0  0  0  0  0
  143.5920  140.1310   94.6490 C   0  0  0  0  0  0  0  0  0  0  0  0
  142.9160  141.4060   94.7910 N   0  0  0  0  0  0  0  0  0  0  0  0
  142.7610  141.9760   94.0040 H   0  0  0  0  0  0  0  0  0  0  0  0
  144.0740  139.6530   93.2750 C   0  0  0  0  0  0  0  0  0  0  0  0
  144.4250  138.3860   92.9570 C   0  0  0  0  0  0  0  0  0  0  0  0
  144.8570  138.0880   91.6210 C   0  0  0  0  0  0  0  0  0  0  0  0
  145.2420  136.8640   91.1400 C   0  0  0  0  0  0  0  0  0  0  0  0
  145.6400  136.7300   89.8100 C   0  0  0  0  0  0  0  0  0  0  0  0
  145.6460  137.8510   88.9620 C   0  0  0  0  0  0  0  0  0  0  0  0
  145.2530  139.1020   89.4460 C   0  0  0  0  0  0  0  0  0  0  0  0
  145.2610  140.5200   88.3640 Cl  0  0  0  0  0  0  0  0  0  0  0  0
  144.8610  139.2370   90.7560 C   0  0  0  0  0  0  0  0  0  0  0  0
  144.2840  140.5910   91.8240 S   0  0  0  0  0  0  0  0  0  0  0  0
  142.4610  141.8440   96.1310 C   0  0  0  0  0  0  0  0  0  0  0  0
  142.7330  143.3510   96.3120 C   0  0  0  0  0  0  0  0  0  0  0  0
  141.5530  144.0500   96.5800 N   0  0  0  0  0  0  0  0  0  0  0  0
  140.9480  143.5510   97.7130 C   0  0  0  0  0  0  0  0  0  0  0  0
  140.6090  142.0970   97.5580 C   0  0  0  0  0  0  0  0  0  0  0  0
  141.0250  141.6210   96.2690 C   0  0  0  0  0  0  0  0  0  0  0  0
  140.3370  142.4030   95.2450 C   0  0  0  0  0  0  0  0  0  0  0  0
  140.6660  143.9260   95.4830 C   0  0  0  0  0  0  0  0  0  0  0  0
  1  2  2  0
  2  3  1  0
  3 15  1  0
 15 16  1  0
 16 17  1  0
 17 18  1  0
 18 19  1  0
 19 20  1  0
 20 21  1  0
 21 22  1  0
  2  5  1  0
  5  6  2  0
  6  7  1  0
  7  8  2  0
  8  9  1  0
  9 10  2  0
 10 11  1  0
 11 12  1  0
 11 13  2  0
 13 14  1  0
 20 15  1  0
 14  5  1  0
 22 17  1  0
 13  7  1  0
  3  4  1  0
M  END
> <meeko>
{"is_sidechain": false}

> <source_group>
CHRFAM7A at A face

> <source_system>
CHRNA7_encenicline

> <source_run>
hybrid_A_face_seed20260825_ex32

> <source_seed>
20260825

> <vina_pose_rank>
15

> <vina_affinity_kcal_mol>
-6.0149999999999997

> <vina_rmsd_to_crystal_angstrom>
5.9710999999999999

> <minimizedAffinity>
-6.01713

> <CNNscore>
0.0817760453

> <CNNaffinity>
4.0319848061

> <CNN_VS>
0.3297197819

> <CNNaffinity_variance>
0.6732637286

$$$$
CHRNA7_encenicline__hybrid_A_face_seed20260825_ex32__pose16


 22 25  0  0  0  0  0  0  0  0999 V2000
  148.0350  140.3410   91.4960 O   0  0  0  0  0  0  0  0  0  0  0  0
  147.7050  139.6490   90.5930 C   0  0  0  0  0  0  0  0  0  0  0  0
  148.1690  139.9450   89.2520 N   0  0  0  0  0  0  0  0  0  0  0  0
  147.9020  139.3730   88.4970 H   0  0  0  0  0  0  0  0  0  0  0  0
  146.7940  138.4450   90.8550 C   0  0  0  0  0  0  0  0  0  0  0  0
  147.1930  137.2330   91.3040 C   0  0  0  0  0  0  0  0  0  0  0  0
  146.2180  136.1980   91.5040 C   0  0  0  0  0  0  0  0  0  0  0  0
  146.4580  134.9260   91.9530 C   0  0  0  0  0  0  0  0  0  0  0  0
  145.4010  134.0260   92.0960 C   0  0  0  0  0  0  0  0  0  0  0  0
  144.0910  134.4240   91.7800 C   0  0  0  0  0  0  0  0  0  0  0  0
  143.8400  135.7210   91.3220 C   0  0  0  0  0  0  0  0  0  0  0  0
  142.1760  136.2210   90.9240 Cl  0  0  0  0  0  0  0  0  0  0  0  0
  144.8790  136.6100   91.1800 C   0  0  0  0  0  0  0  0  0  0  0  0
  145.0690  138.3370   90.6460 S   0  0  0  0  0  0  0  0  0  0  0  0
  149.0500  141.1140   89.0270 C   0  0  0  0  0  0  0  0  0  0  0  0
  150.4460  140.6410   88.5760 C   0  0  0  0  0  0  0  0  0  0  0  0
  150.7840  141.1760   87.3300 N   0  0  0  0  0  0  0  0  0  0  0  0
  150.7550  142.5530   87.3760 C   0  0  0  0  0  0  0  0  0  0  0  0
  149.3940  143.0600   87.7530 C   0  0  0  0  0  0  0  0  0  0  0  0
  148.4950  141.9630   87.9770 C   0  0  0  0  0  0  0  0  0  0  0  0
  148.4100  141.1780   86.7480 C   0  0  0  0  0  0  0  0  0  0  0  0
  149.8660  140.7220   86.3520 C   0  0  0  0  0  0  0  0  0  0  0  0
  1  2  2  0
  2  3  1  0
  3 15  1  0
 15 16  1  0
 16 17  1  0
 17 18  1  0
 18 19  1  0
 19 20  1  0
 20 21  1  0
 21 22  1  0
  2  5  1  0
  5  6  2  0
  6  7  1  0
  7  8  2  0
  8  9  1  0
  9 10  2  0
 10 11  1  0
 11 12  1  0
 11 13  2  0
 13 14  1  0
 20 15  1  0
 14  5  1  0
 22 17  1  0
 13  7  1  0
  3  4  1  0
M  END
> <meeko>
{"is_sidechain": false}

> <source_group>
CHRFAM7A at A face

> <source_system>
CHRNA7_encenicline

> <source_run>
hybrid_A_face_seed20260825_ex32

> <source_seed>
20260825

> <vina_pose_rank>
16

> <vina_affinity_kcal_mol>
-5.9729999999999999

> <vina_rmsd_to_crystal_angstrom>
7.1200000000000001

> <minimizedAffinity>
-5.97775

> <CNNscore>
0.3195573986

> <CNNaffinity>
4.8813061714

> <CNN_VS>
1.5598574877

> <CNNaffinity_variance>
0.4547289312

$$$$
CHRNA7_encenicline__hybrid_A_face_seed20260825_ex32__pose17


 22 25  0  0  0  0  0  0  0  0999 V2000
  140.0060  140.7540   85.8940 O   0  0  0  0  0  0  0  0  0  0  0  0
  140.9630  140.4080   86.4990 C   0  0  0  0  0  0  0  0  0  0  0  0
  140.8160  139.8840   87.8430 N   0  0  0  0  0  0  0  0  0  0  0  0
  141.6070  139.5920   88.3510 H   0  0  0  0  0  0  0  0  0  0  0  0
  142.3480  140.5150   85.8510 C   0  0  0  0  0  0  0  0  0  0  0  0
  142.6320  141.1470   84.6890 C   0  0  0  0  0  0  0  0  0  0  0  0
  143.9830  141.1650   84.2060 C   0  0  0  0  0  0  0  0  0  0  0  0
  144.4330  141.7590   83.0570 C   0  0  0  0  0  0  0  0  0  0  0  0
  145.7840  141.6900   82.7170 C   0  0  0  0  0  0  0  0  0  0  0  0
  146.6850  141.0110   83.5550 C   0  0  0  0  0  0  0  0  0  0  0  0
  146.2330  140.4030   84.7300 C   0  0  0  0  0  0  0  0  0  0  0  0
  147.3810  139.5440   85.7900 Cl  0  0  0  0  0  0  0  0  0  0  0  0
  144.9020  140.4690   85.0670 C   0  0  0  0  0  0  0  0  0  0  0  0
  143.8580  139.8690   86.4290 S   0  0  0  0  0  0  0  0  0  0  0  0
  139.4670  139.7920   88.4450 C   0  0  0  0  0  0  0  0  0  0  0  0
  138.8060  138.4560   88.0510 C   0  0  0  0  0  0  0  0  0  0  0  0
  138.4700  137.7050   89.1800 N   0  0  0  0  0  0  0  0  0  0  0  0
  137.6180  138.4190   89.9950 C   0  0  0  0  0  0  0  0  0  0  0  0
  138.2450  139.7020   90.4520 C   0  0  0  0  0  0  0  0  0  0  0  0
  139.5640  139.8400   89.9010 C   0  0  0  0  0  0  0  0  0  0  0  0
  140.3700  138.7060   90.3450 C   0  0  0  0  0  0  0  0  0  0  0  0
  139.6440  137.3800   89.9030 C   0  0  0  0  0  0  0  0  0  0  0  0
  1  2  2  0
  2  3  1  0
  3 15  1  0
 15 16  1  0
 16 17  1  0
 17 18  1  0
 18 19  1  0
 19 20  1  0
 20 21  1  0
 21 22  1  0
  2  5  1  0
  5  6  2  0
  6  7  1  0
  7  8  2  0
  8  9  1  0
  9 10  2  0
 10 11  1  0
 11 12  1  0
 11 13  2  0
 13 14  1  0
 20 15  1  0
 14  5  1  0
 22 17  1  0
 13  7  1  0
  3  4  1  0
M  END
> <meeko>
{"is_sidechain": false}

> <source_group>
CHRFAM7A at A face

> <source_system>
CHRNA7_encenicline

> <source_run>
hybrid_A_face_seed20260825_ex32

> <source_seed>
20260825

> <vina_pose_rank>
17

> <vina_affinity_kcal_mol>
-5.9509999999999996

> <vina_rmsd_to_crystal_angstrom>
6.3494999999999999

> <minimizedAffinity>
-6.01908

> <CNNscore>
0.7925633192

> <CNNaffinity>
6.5212130547

> <CNN_VS>
5.1684741974

> <CNNaffinity_variance>
0.2501484454

$$$$
CHRNA7_encenicline__hybrid_A_face_seed20260825_ex32__pose18


 22 25  0  0  0  0  0  0  0  0999 V2000
  138.5340  139.7870   88.0940 O   0  0  0  0  0  0  0  0  0  0  0  0
  138.8690  140.9060   87.8970 C   0  0  0  0  0  0  0  0  0  0  0  0
  139.4540  141.2690   86.6210 N   0  0  0  0  0  0  0  0  0  0  0  0
  139.7320  142.1980   86.4490 H   0  0  0  0  0  0  0  0  0  0  0  0
  138.6760  141.9580   88.9940 C   0  0  0  0  0  0  0  0  0  0  0  0
  138.0350  143.1420   88.8520 C   0  0  0  0  0  0  0  0  0  0  0  0
  137.9310  144.0280   89.9760 C   0  0  0  0  0  0  0  0  0  0  0  0
  137.3170  145.2520   89.9970 C   0  0  0  0  0  0  0  0  0  0  0  0
  137.3000  146.0050   91.1720 C   0  0  0  0  0  0  0  0  0  0  0  0
  137.9120  145.5060   92.3350 C   0  0  0  0  0  0  0  0  0  0  0  0
  138.5390  144.2560   92.3200 C   0  0  0  0  0  0  0  0  0  0  0  0
  139.3120  143.6280   93.7990 Cl  0  0  0  0  0  0  0  0  0  0  0  0
  138.5580  143.5140   91.1640 C   0  0  0  0  0  0  0  0  0  0  0  0
  139.2160  141.8990   90.6480 S   0  0  0  0  0  0  0  0  0  0  0  0
  139.6290  140.2330   85.5780 C   0  0  0  0  0  0  0  0  0  0  0  0
  139.9760  140.8960   84.2310 C   0  0  0  0  0  0  0  0  0  0  0  0
  141.2010  140.4350   83.7410 N   0  0  0  0  0  0  0  0  0  0  0  0
  141.1720  139.0660   83.5870 C   0  0  0  0  0  0  0  0  0  0  0  0
  140.8960  138.3750   84.8900 C   0  0  0  0  0  0  0  0  0  0  0  0
  140.7230  139.3380   85.9420 C   0  0  0  0  0  0  0  0  0  0  0  0
  141.9470  140.1280   86.0480 C   0  0  0  0  0  0  0  0  0  0  0  0
  142.2360  140.7830   84.6440 C   0  0  0  0  0  0  0  0  0  0  0  0
  1  2  2  0
  2  3  1  0
  3 15  1  0
 15 16  1  0
 16 17  1  0
 17 18  1  0
 18 19  1  0
 19 20  1  0
 20 21  1  0
 21 22  1  0
  2  5  1  0
  5  6  2  0
  6  7  1  0
  7  8  2  0
  8  9  1  0
  9 10  2  0
 10 11  1  0
 11 12  1  0
 11 13  2  0
 13 14  1  0
 20 15  1  0
 14  5  1  0
 22 17  1  0
 13  7  1  0
  3  4  1  0
M  END
> <meeko>
{"is_sidechain": false}

> <source_group>
CHRFAM7A at A face

> <source_system>
CHRNA7_encenicline

> <source_run>
hybrid_A_face_seed20260825_ex32

> <source_seed>
20260825

> <vina_pose_rank>
18

> <vina_affinity_kcal_mol>
-5.9480000000000004

> <vina_rmsd_to_crystal_angstrom>
8.4610000000000003

> <minimizedAffinity>
-6.13757

> <CNNscore>
0.1352204382

> <CNNaffinity>
5.3766059875

> <CNN_VS>
0.7270269990

> <CNNaffinity_variance>
0.1367257386

$$$$
CHRNA7_encenicline__hybrid_A_face_seed20260825_ex32__pose19


 22 25  0  0  0  0  0  0  0  0999 V2000
  144.6050  137.4160   91.7410 O   0  0  0  0  0  0  0  0  0  0  0  0
  144.2050  138.2910   91.0510 C   0  0  0  0  0  0  0  0  0  0  0  0
  145.1340  139.2690   90.5170 N   0  0  0  0  0  0  0  0  0  0  0  0
  144.8100  139.9980   89.9400 H   0  0  0  0  0  0  0  0  0  0  0  0
  142.7100  138.3780   90.7260 C   0  0  0  0  0  0  0  0  0  0  0  0
  141.8460  137.3370   90.6880 C   0  0  0  0  0  0  0  0  0  0  0  0
  140.4670  137.5750   90.3690 C   0  0  0  0  0  0  0  0  0  0  0  0
  139.4730  136.6360   90.2920 C   0  0  0  0  0  0  0  0  0  0  0  0
  138.1720  137.0220   89.9680 C   0  0  0  0  0  0  0  0  0  0  0  0
  137.8810  138.3740   89.7190 C   0  0  0  0  0  0  0  0  0  0  0  0
  138.8920  139.3380   89.7980 C   0  0  0  0  0  0  0  0  0  0  0  0
  138.5170  141.0530   89.4840 Cl  0  0  0  0  0  0  0  0  0  0  0  0
  140.1740  138.9600   90.1170 C   0  0  0  0  0  0  0  0  0  0  0  0
  141.7750  139.7940   90.3360 S   0  0  0  0  0  0  0  0  0  0  0  0
  146.5730  139.1610   90.8460 C   0  0  0  0  0  0  0  0  0  0  0  0
  147.3390  138.5400   89.6610 C   0  0  0  0  0  0  0  0  0  0  0  0
  148.3430  139.3970   89.2020 N   0  0  0  0  0  0  0  0  0  0  0  0
  149.2250  139.6890   90.2190 C   0  0  0  0  0  0  0  0  0  0  0  0
  148.5320  140.3510   91.3730 C   0  0  0  0  0  0  0  0  0  0  0  0
  147.1280  140.4870   91.1030 C   0  0  0  0  0  0  0  0  0  0  0  0
  146.9670  141.2940   89.8960 C   0  0  0  0  0  0  0  0  0  0  0  0
  147.7630  140.5990   88.7270 C   0  0  0  0  0  0  0  0  0  0  0  0
  1  2  2  0
  2  3  1  0
  3 15  1  0
 15 16  1  0
 16 17  1  0
 17 18  1  0
 18 19  1  0
 19 20  1  0
 20 21  1  0
 21 22  1  0
  2  5  1  0
  5  6  2  0
  6  7  1  0
  7  8  2  0
  8  9  1  0
  9 10  2  0
 10 11  1  0
 11 12  1  0
 11 13  2  0
 13 14  1  0
 20 15  1  0
 14  5  1  0
 22 17  1  0
 13  7  1  0
  3  4  1  0
M  END
> <meeko>
{"is_sidechain": false}

> <source_group>
CHRFAM7A at A face

> <source_system>
CHRNA7_encenicline

> <source_run>
hybrid_A_face_seed20260825_ex32

> <source_seed>
20260825

> <vina_pose_rank>
19

> <vina_affinity_kcal_mol>
-5.8620000000000001

> <vina_rmsd_to_crystal_angstrom>
7.2747000000000002

> <minimizedAffinity>
-5.87557

> <CNNscore>
0.2512058318

> <CNNaffinity>
5.1000089645

> <CNN_VS>
1.2811520100

> <CNNaffinity_variance>
0.2508304119

$$$$
CHRNA7_encenicline__hybrid_A_face_seed20260825_ex32__pose20


 22 25  0  0  0  0  0  0  0  0999 V2000
  144.4830  142.3670   95.1370 O   0  0  0  0  0  0  0  0  0  0  0  0
  143.6320  141.8860   94.4680 C   0  0  0  0  0  0  0  0  0  0  0  0
  142.2430  142.2080   94.7270 N   0  0  0  0  0  0  0  0  0  0  0  0
  141.5300  141.8150   94.1730 H   0  0  0  0  0  0  0  0  0  0  0  0
  144.0120  140.9300   93.3310 C   0  0  0  0  0  0  0  0  0  0  0  0
  144.3140  141.2890   92.0630 C   0  0  0  0  0  0  0  0  0  0  0  0
  144.6540  140.2760   91.1040 C   0  0  0  0  0  0  0  0  0  0  0  0
  144.9850  140.4730   89.7890 C   0  0  0  0  0  0  0  0  0  0  0  0
  145.2910  139.3830   88.9750 C   0  0  0  0  0  0  0  0  0  0  0  0
  145.2610  138.0810   89.5040 C   0  0  0  0  0  0  0  0  0  0  0  0
  144.9260  137.8730   90.8450 C   0  0  0  0  0  0  0  0  0  0  0  0
  144.8920  136.2190   91.5110 Cl  0  0  0  0  0  0  0  0  0  0  0  0
  144.6230  138.9460   91.6490 C   0  0  0  0  0  0  0  0  0  0  0  0
  144.1450  139.1950   93.3850 S   0  0  0  0  0  0  0  0  0  0  0  0
  141.9040  143.1350   95.8310 C   0  0  0  0  0  0  0  0  0  0  0  0
  140.6430  143.9450   95.4690 C   0  0  0  0  0  0  0  0  0  0  0  0
  139.6290  143.7500   96.4100 N   0  0  0  0  0  0  0  0  0  0  0  0
  140.0650  144.1120   97.6660 C   0  0  0  0  0  0  0  0  0  0  0  0
  141.2580  143.3050   98.0860 C   0  0  0  0  0  0  0  0  0  0  0  0
  141.6270  142.3810   97.0500 C   0  0  0  0  0  0  0  0  0  0  0  0
  140.4930  141.4970   96.7950 C   0  0  0  0  0  0  0  0  0  0  0  0
  139.2460  142.3870   96.4230 C   0  0  0  0  0  0  0  0  0  0  0  0
  1  2  2  0
  2  3  1  0
  3 15  1  0
 15 16  1  0
 16 17  1  0
 17 18  1  0
 18 19  1  0
 19 20  1  0
 20 21  1  0
 21 22  1  0
  2  5  1  0
  5  6  2  0
  6  7  1  0
  7  8  2  0
  8  9  1  0
  9 10  2  0
 10 11  1  0
 11 12  1  0
 11 13  2  0
 13 14  1  0
 20 15  1  0
 14  5  1  0
 22 17  1  0
 13  7  1  0
  3  4  1  0
M  END
> <meeko>
{"is_sidechain": false}

> <source_group>
CHRFAM7A at A face

> <source_system>
CHRNA7_encenicline

> <source_run>
hybrid_A_face_seed20260825_ex32

> <source_seed>
20260825

> <vina_pose_rank>
20

> <vina_affinity_kcal_mol>
-5.8010000000000002

> <vina_rmsd_to_crystal_angstrom>
6.2205000000000004

> <minimizedAffinity>
-5.81864

> <CNNscore>
0.1208861098

> <CNNaffinity>
3.9603030682

> <CNN_VS>
0.4787456393

> <CNNaffinity_variance>
0.7081794739

$$$$
