CHRNA7_encenicline__hybrid_A_face_seed2207_ex32__pose01
     RDKit          3D

 38 41  0  0  0  0  0  0  0  0999 V2000
  142.0000  140.3950   90.9680 O   0  0  0  0  0  0  0  0  0  0  0  0
  142.1440  139.2430   90.7350 C   0  0  0  0  0  0  0  0  0  0  0  0
  141.0030  138.4390   90.3450 N   0  0  0  0  0  0  0  0  0  0  0  0
  139.6670  139.0700   90.2470 C   0  0  1  0  0  0  0  0  0  0  0  0
  139.3620  139.4280   88.7790 C   0  0  0  0  0  0  0  0  0  0  0  0
  138.1960  138.7980   88.3360 N   0  0  0  0  0  0  0  0  0  0  0  0
  137.1270  139.1530   89.1290 C   0  0  0  0  0  0  0  0  0  0  0  0
  137.3560  138.7670   90.5610 C   0  0  0  0  0  0  0  0  0  0  0  0
  138.6400  138.1420   90.7120 C   0  0  0  0  0  0  0  0  0  0  0  0
  138.6770  136.9530   89.8640 C   0  0  0  0  0  0  0  0  0  0  0  0
  138.3670  137.3930   88.3830 C   0  0  0  0  0  0  0  0  0  0  0  0
  143.5390  138.6160   90.8440 C   0  0  0  0  0  0  0  0  0  0  0  0
  143.8030  137.3120   91.0880 C   0  0  0  0  0  0  0  0  0  0  0  0
  145.1670  136.8700   91.1610 C   0  0  0  0  0  0  0  0  0  0  0  0
  145.6000  135.5920   91.3970 C   0  0  0  0  0  0  0  0  0  0  0  0
  146.9660  135.3140   91.4400 C   0  0  0  0  0  0  0  0  0  0  0  0
  147.8990  136.3460   91.2420 C   0  0  0  0  0  0  0  0  0  0  0  0
  147.4640  137.6530   90.9990 C   0  0  0  0  0  0  0  0  0  0  0  0
  148.6520  138.9570   90.7460 Cl  0  0  0  0  0  0  0  0  0  0  0  0
  146.1180  137.9290   90.9570 C   0  0  0  0  0  0  0  0  0  0  0  0
  145.0850  139.4000   90.6870 S   0  0  0  0  0  0  0  0  0  0  0  0
  141.1150  137.4810   90.1470 H   0  0  0  0  0  0  0  0  0  0  0  0
  139.6659  139.9778   90.8683 H   0  0  0  0  0  0  0  0  0  0  0  0
  139.2353  140.5174   88.6944 H   0  0  0  0  0  0  0  0  0  0  0  0
  140.2010  139.0850   88.1558 H   0  0  0  0  0  0  0  0  0  0  0  0
  136.9838  140.2421   89.0703 H   0  0  0  0  0  0  0  0  0  0  0  0
  136.2348  138.6221   88.7656 H   0  0  0  0  0  0  0  0  0  0  0  0
  137.3154  139.6683   91.1902 H   0  0  0  0  0  0  0  0  0  0  0  0
  136.5749  138.0560   90.8681 H   0  0  0  0  0  0  0  0  0  0  0  0
  138.8134  137.8728   91.7643 H   0  0  0  0  0  0  0  0  0  0  0  0
  139.6741  136.4911   89.9140 H   0  0  0  0  0  0  0  0  0  0  0  0
  137.9317  136.2198   90.2059 H   0  0  0  0  0  0  0  0  0  0  0  0
  139.2043  137.1032   87.7311 H   0  0  0  0  0  0  0  0  0  0  0  0
  137.4468  136.8990   88.0378 H   0  0  0  0  0  0  0  0  0  0  0  0
  142.9797  136.5963   91.2293 H   0  0  0  0  0  0  0  0  0  0  0  0
  144.8697  134.7843   91.5527 H   0  0  0  0  0  0  0  0  0  0  0  0
  147.3129  134.2873   91.6288 H   0  0  0  0  0  0  0  0  0  0  0  0
  148.9760  136.1250   91.2782 H   0  0  0  0  0  0  0  0  0  0  0  0
  1  2  2  0
  2  3  1  0
  3  4  1  0
  4  5  1  0
  5  6  1  0
  6  7  1  0
  7  8  1  0
  8  9  1  0
  9 10  1  0
 10 11  1  0
  2 12  1  0
 12 13  2  0
 13 14  1  0
 14 15  2  0
 15 16  1  0
 16 17  2  0
 17 18  1  0
 18 19  1  0
 18 20  2  0
 20 21  1  0
  9  4  1  0
 21 12  1  0
 11  6  1  0
 20 14  1  0
  3 22  1  0
  4 23  1  1
  5 24  1  0
  5 25  1  0
  7 26  1  0
  7 27  1  0
  8 28  1  0
  8 29  1  0
  9 30  1  0
 10 31  1  0
 10 32  1  0
 11 33  1  0
 11 34  1  0
 13 35  1  0
 15 36  1  0
 16 37  1  0
 17 38  1  0
M  END
>  <meeko>  (1)
{"is_sidechain": false}

>  <source_group>  (1)
CHRFAM7A at A face

>  <source_system>  (1)
CHRNA7_encenicline

>  <source_run>  (1)
hybrid_A_face_seed2207_ex32

>  <source_seed>  (1)
2207

>  <vina_pose_rank>  (1)
1

>  <vina_affinity_kcal_mol>  (1)
-7.5519999999999996

>  <vina_rmsd_to_crystal_angstrom>  (1)
2.0512000000000001

$$$$
CHRNA7_encenicline__hybrid_A_face_seed2207_ex32__pose02
     RDKit          3D

 38 41  0  0  0  0  0  0  0  0999 V2000
  142.3850  138.1790   90.8890 O   0  0  0  0  0  0  0  0  0  0  0  0
  142.4290  139.2250   90.3360 C   0  0  0  0  0  0  0  0  0  0  0  0
  141.2010  139.8570   89.8930 N   0  0  0  0  0  0  0  0  0  0  0  0
  139.9060  139.1820   90.1350 C   0  0  1  0  0  0  0  0  0  0  0  0
  138.8390  140.2210   90.5350 C   0  0  0  0  0  0  0  0  0  0  0  0
  137.7560  140.2000   89.6520 N   0  0  0  0  0  0  0  0  0  0  0  0
  137.1890  138.9440   89.6190 C   0  0  0  0  0  0  0  0  0  0  0  0
  138.1780  137.9080   89.1750 C   0  0  0  0  0  0  0  0  0  0  0  0
  139.4560  138.5120   88.9190 C   0  0  0  0  0  0  0  0  0  0  0  0
  139.2880  139.5190   87.8740 C   0  0  0  0  0  0  0  0  0  0  0  0
  138.1950  140.5490   88.3510 C   0  0  0  0  0  0  0  0  0  0  0  0
  143.7830  139.9010   90.0980 C   0  0  0  0  0  0  0  0  0  0  0  0
  144.3360  140.1640   88.8910 C   0  0  0  0  0  0  0  0  0  0  0  0
  145.6170  140.8080   88.8270 C   0  0  0  0  0  0  0  0  0  0  0  0
  146.3070  141.1430   87.6910 C   0  0  0  0  0  0  0  0  0  0  0  0
  147.5510  141.7670   87.7890 C   0  0  0  0  0  0  0  0  0  0  0  0
  148.0960  142.0540   89.0520 C   0  0  0  0  0  0  0  0  0  0  0  0
  147.3970  141.7150   90.2140 C   0  0  0  0  0  0  0  0  0  0  0  0
  148.0930  142.0830   91.8140 Cl  0  0  0  0  0  0  0  0  0  0  0  0
  146.1720  141.1000   90.1210 C   0  0  0  0  0  0  0  0  0  0  0  0
  144.9170  140.4830   91.2840 S   0  0  0  0  0  0  0  0  0  0  0  0
  141.2290  140.7280   89.4350 H   0  0  0  0  0  0  0  0  0  0  0  0
  140.0433  138.4476   90.9423 H   0  0  0  0  0  0  0  0  0  0  0  0
  138.4792  139.9933   91.5493 H   0  0  0  0  0  0  0  0  0  0  0  0
  139.2967  141.2207   90.5006 H   0  0  0  0  0  0  0  0  0  0  0  0
  136.8297  138.6871   90.6264 H   0  0  0  0  0  0  0  0  0  0  0  0
  136.3571  138.9588   88.8995 H   0  0  0  0  0  0  0  0  0  0  0  0
  138.2872  137.1496   89.9643 H   0  0  0  0  0  0  0  0  0  0  0  0
  137.8128  137.4403   88.2488 H   0  0  0  0  0  0  0  0  0  0  0  0
  140.1855  137.7494   88.6088 H   0  0  0  0  0  0  0  0  0  0  0  0
  140.2413  140.0406   87.7033 H   0  0  0  0  0  0  0  0  0  0  0  0
  138.9742  139.0413   86.9341 H   0  0  0  0  0  0  0  0  0  0  0  0
  138.6267  141.5606   88.3683 H   0  0  0  0  0  0  0  0  0  0  0  0
  137.3418  140.5274   87.6570 H   0  0  0  0  0  0  0  0  0  0  0  0
  143.8080  139.8865   87.9668 H   0  0  0  0  0  0  0  0  0  0  0  0
  145.8800  140.9199   86.7021 H   0  0  0  0  0  0  0  0  0  0  0  0
  148.1053  142.0344   86.8773 H   0  0  0  0  0  0  0  0  0  0  0  0
  149.0764  142.5473   89.1265 H   0  0  0  0  0  0  0  0  0  0  0  0
  1  2  2  0
  2  3  1  0
  3  4  1  0
  4  5  1  0
  5  6  1  0
  6  7  1  0
  7  8  1  0
  8  9  1  0
  9 10  1  0
 10 11  1  0
  2 12  1  0
 12 13  2  0
 13 14  1  0
 14 15  2  0
 15 16  1  0
 16 17  2  0
 17 18  1  0
 18 19  1  0
 18 20  2  0
 20 21  1  0
  9  4  1  0
 21 12  1  0
 11  6  1  0
 20 14  1  0
  3 22  1  0
  4 23  1  1
  5 24  1  0
  5 25  1  0
  7 26  1  0
  7 27  1  0
  8 28  1  0
  8 29  1  0
  9 30  1  0
 10 31  1  0
 10 32  1  0
 11 33  1  0
 11 34  1  0
 13 35  1  0
 15 36  1  0
 16 37  1  0
 17 38  1  0
M  END
>  <meeko>  (2)
{"is_sidechain": false}

>  <source_group>  (2)
CHRFAM7A at A face

>  <source_system>  (2)
CHRNA7_encenicline

>  <source_run>  (2)
hybrid_A_face_seed2207_ex32

>  <source_seed>  (2)
2207

>  <vina_pose_rank>  (2)
2

>  <vina_affinity_kcal_mol>  (2)
-7.5279999999999996

>  <vina_rmsd_to_crystal_angstrom>  (2)
4.4793000000000003

$$$$
CHRNA7_encenicline__hybrid_A_face_seed2207_ex32__pose03
     RDKit          3D

 38 41  0  0  0  0  0  0  0  0999 V2000
  142.8160  138.7740   91.1010 O   0  0  0  0  0  0  0  0  0  0  0  0
  142.6790  139.4770   90.1570 C   0  0  0  0  0  0  0  0  0  0  0  0
  141.3450  139.8070   89.6930 N   0  0  0  0  0  0  0  0  0  0  0  0
  140.1690  139.2570   90.4050 C   0  0  1  0  0  0  0  0  0  0  0  0
  139.0920  140.3490   90.5620 C   0  0  0  0  0  0  0  0  0  0  0  0
  137.8890  139.9630   89.9650 N   0  0  0  0  0  0  0  0  0  0  0  0
  137.4360  138.7850   90.5190 C   0  0  0  0  0  0  0  0  0  0  0  0
  138.4300  137.6760   90.3350 C   0  0  0  0  0  0  0  0  0  0  0  0
  139.5930  138.1540   89.6410 C   0  0  0  0  0  0  0  0  0  0  0  0
  139.1740  138.6670   88.3390 C   0  0  0  0  0  0  0  0  0  0  0  0
  138.0840  139.7810   88.5740 C   0  0  0  0  0  0  0  0  0  0  0  0
  143.9140  140.0320   89.4390 C   0  0  0  0  0  0  0  0  0  0  0  0
  144.9450  140.6820   90.0270 C   0  0  0  0  0  0  0  0  0  0  0  0
  146.0390  141.1440   89.2210 C   0  0  0  0  0  0  0  0  0  0  0  0
  147.1510  141.8130   89.6590 C   0  0  0  0  0  0  0  0  0  0  0  0
  148.1360  142.2020   88.7500 C   0  0  0  0  0  0  0  0  0  0  0  0
  147.9860  141.9080   87.3840 C   0  0  0  0  0  0  0  0  0  0  0  0
  146.8530  141.2250   86.9300 C   0  0  0  0  0  0  0  0  0  0  0  0
  146.6700  140.8530   85.1960 Cl  0  0  0  0  0  0  0  0  0  0  0  0
  145.8820  140.8410   87.8240 C   0  0  0  0  0  0  0  0  0  0  0  0
  144.2900  139.9680   87.7410 S   0  0  0  0  0  0  0  0  0  0  0  0
  141.2230  140.3920   88.9110 H   0  0  0  0  0  0  0  0  0  0  0  0
  140.4963  138.9018   91.3933 H   0  0  0  0  0  0  0  0  0  0  0  0
  138.9188  140.5306   91.6330 H   0  0  0  0  0  0  0  0  0  0  0  0
  139.4489  141.2636   90.0658 H   0  0  0  0  0  0  0  0  0  0  0  0
  137.2653  138.9378   91.5949 H   0  0  0  0  0  0  0  0  0  0  0  0
  136.5020  138.5006   90.0122 H   0  0  0  0  0  0  0  0  0  0  0  0
  138.7294  137.2908   91.3209 H   0  0  0  0  0  0  0  0  0  0  0  0
  137.9647  136.8756   89.7409 H   0  0  0  0  0  0  0  0  0  0  0  0
  140.3278  137.3443   89.5205 H   0  0  0  0  0  0  0  0  0  0  0  0
  140.0388  139.0977   87.8130 H   0  0  0  0  0  0  0  0  0  0  0  0
  138.7585  137.8532   87.7266 H   0  0  0  0  0  0  0  0  0  0  0  0
  138.4224  140.7261   88.1242 H   0  0  0  0  0  0  0  0  0  0  0  0
  137.1368  139.4722   88.1077 H   0  0  0  0  0  0  0  0  0  0  0  0
  144.9446  140.8548   91.1133 H   0  0  0  0  0  0  0  0  0  0  0  0
  147.2678  142.0439   90.7281 H   0  0  0  0  0  0  0  0  0  0  0  0
  149.0293  142.7384   89.1026 H   0  0  0  0  0  0  0  0  0  0  0  0
  148.7629  142.2163   86.6689 H   0  0  0  0  0  0  0  0  0  0  0  0
  1  2  2  0
  2  3  1  0
  3  4  1  0
  4  5  1  0
  5  6  1  0
  6  7  1  0
  7  8  1  0
  8  9  1  0
  9 10  1  0
 10 11  1  0
  2 12  1  0
 12 13  2  0
 13 14  1  0
 14 15  2  0
 15 16  1  0
 16 17  2  0
 17 18  1  0
 18 19  1  0
 18 20  2  0
 20 21  1  0
  9  4  1  0
 21 12  1  0
 11  6  1  0
 20 14  1  0
  3 22  1  0
  4 23  1  1
  5 24  1  0
  5 25  1  0
  7 26  1  0
  7 27  1  0
  8 28  1  0
  8 29  1  0
  9 30  1  0
 10 31  1  0
 10 32  1  0
 11 33  1  0
 11 34  1  0
 13 35  1  0
 15 36  1  0
 16 37  1  0
 17 38  1  0
M  END
>  <meeko>  (3)
{"is_sidechain": false}

>  <source_group>  (3)
CHRFAM7A at A face

>  <source_system>  (3)
CHRNA7_encenicline

>  <source_run>  (3)
hybrid_A_face_seed2207_ex32

>  <source_seed>  (3)
2207

>  <vina_pose_rank>  (3)
3

>  <vina_affinity_kcal_mol>  (3)
-7.4409999999999998

>  <vina_rmsd_to_crystal_angstrom>  (3)
4.9108000000000001

$$$$
CHRNA7_encenicline__hybrid_A_face_seed2207_ex32__pose04
     RDKit          3D

 38 41  0  0  0  0  0  0  0  0999 V2000
  142.1920  140.1730   90.7690 O   0  0  0  0  0  0  0  0  0  0  0  0
  142.2150  138.9990   90.6200 C   0  0  0  0  0  0  0  0  0  0  0  0
  140.9840  138.2830   90.3440 N   0  0  0  0  0  0  0  0  0  0  0  0
  139.7100  139.0330   90.2560 C   0  0  1  0  0  0  0  0  0  0  0  0
  139.4400  139.4390   88.7940 C   0  0  0  0  0  0  0  0  0  0  0  0
  138.2230  138.9230   88.3420 N   0  0  0  0  0  0  0  0  0  0  0  0
  137.1900  139.3600   89.1410 C   0  0  0  0  0  0  0  0  0  0  0  0
  137.3810  138.9330   90.5660 C   0  0  0  0  0  0  0  0  0  0  0  0
  138.6040  138.1930   90.7080 C   0  0  0  0  0  0  0  0  0  0  0  0
  138.5350  137.0190   89.8420 C   0  0  0  0  0  0  0  0  0  0  0  0
  138.2680  137.5070   88.3680 C   0  0  0  0  0  0  0  0  0  0  0  0
  143.5480  138.2480   90.7160 C   0  0  0  0  0  0  0  0  0  0  0  0
  144.7570  138.7320   90.3490 C   0  0  0  0  0  0  0  0  0  0  0  0
  145.9230  137.9090   90.5010 C   0  0  0  0  0  0  0  0  0  0  0  0
  147.2110  138.2490   90.1810 C   0  0  0  0  0  0  0  0  0  0  0  0
  148.2460  137.3360   90.3850 C   0  0  0  0  0  0  0  0  0  0  0  0
  147.9670  136.0660   90.9190 C   0  0  0  0  0  0  0  0  0  0  0  0
  146.6550  135.7130   91.2490 C   0  0  0  0  0  0  0  0  0  0  0  0
  146.3080  134.1020   91.9280 Cl  0  0  0  0  0  0  0  0  0  0  0  0
  145.6340  136.6110   91.0480 C   0  0  0  0  0  0  0  0  0  0  0  0
  143.8340  136.6350   91.3030 S   0  0  0  0  0  0  0  0  0  0  0  0
  140.9950  137.3070   90.2160 H   0  0  0  0  0  0  0  0  0  0  0  0
  139.7890  139.9282   90.8903 H   0  0  0  0  0  0  0  0  0  0  0  0
  139.4116  140.5365   88.7260 H   0  0  0  0  0  0  0  0  0  0  0  0
  140.2456  139.0317   88.1654 H   0  0  0  0  0  0  0  0  0  0  0  0
  137.1456  140.4583   89.0995 H   0  0  0  0  0  0  0  0  0  0  0  0
  136.2542  138.9168   88.7696 H   0  0  0  0  0  0  0  0  0  0  0  0
  137.4201  139.8245   91.2092 H   0  0  0  0  0  0  0  0  0  0  0  0
  136.5388  138.2900   90.8615 H   0  0  0  0  0  0  0  0  0  0  0  0
  138.7520  137.8932   91.7560 H   0  0  0  0  0  0  0  0  0  0  0  0
  139.4864  136.4685   89.8850 H   0  0  0  0  0  0  0  0  0  0  0  0
  137.7260  136.3510   90.1726 H   0  0  0  0  0  0  0  0  0  0  0  0
  139.0772  137.1534   87.7121 H   0  0  0  0  0  0  0  0  0  0  0  0
  137.3079  137.1023   88.0152 H   0  0  0  0  0  0  0  0  0  0  0  0
  144.8456  139.7482   89.9374 H   0  0  0  0  0  0  0  0  0  0  0  0
  147.4293  139.2427   89.7628 H   0  0  0  0  0  0  0  0  0  0  0  0
  149.2799  137.6099   90.1281 H   0  0  0  0  0  0  0  0  0  0  0  0
  148.7842  135.3470   91.0779 H   0  0  0  0  0  0  0  0  0  0  0  0
  1  2  2  0
  2  3  1  0
  3  4  1  0
  4  5  1  0
  5  6  1  0
  6  7  1  0
  7  8  1  0
  8  9  1  0
  9 10  1  0
 10 11  1  0
  2 12  1  0
 12 13  2  0
 13 14  1  0
 14 15  2  0
 15 16  1  0
 16 17  2  0
 17 18  1  0
 18 19  1  0
 18 20  2  0
 20 21  1  0
  9  4  1  0
 21 12  1  0
 11  6  1  0
 20 14  1  0
  3 22  1  0
  4 23  1  1
  5 24  1  0
  5 25  1  0
  7 26  1  0
  7 27  1  0
  8 28  1  0
  8 29  1  0
  9 30  1  0
 10 31  1  0
 10 32  1  0
 11 33  1  0
 11 34  1  0
 13 35  1  0
 15 36  1  0
 16 37  1  0
 17 38  1  0
M  END
>  <meeko>  (4)
{"is_sidechain": false}

>  <source_group>  (4)
CHRFAM7A at A face

>  <source_system>  (4)
CHRNA7_encenicline

>  <source_run>  (4)
hybrid_A_face_seed2207_ex32

>  <source_seed>  (4)
2207

>  <vina_pose_rank>  (4)
4

>  <vina_affinity_kcal_mol>  (4)
-7.3559999999999999

>  <vina_rmsd_to_crystal_angstrom>  (4)
2.5190000000000001

$$$$
CHRNA7_encenicline__hybrid_A_face_seed2207_ex32__pose05
     RDKit          3D

 38 41  0  0  0  0  0  0  0  0999 V2000
  144.6630  139.4120   92.0810 O   0  0  0  0  0  0  0  0  0  0  0  0
  144.2530  138.4330   91.5550 C   0  0  0  0  0  0  0  0  0  0  0  0
  145.1090  137.2690   91.4330 N   0  0  0  0  0  0  0  0  0  0  0  0
  146.4900  137.3200   91.9660 C   0  0  1  0  0  0  0  0  0  0  0  0
  146.9210  135.9200   92.4440 C   0  0  0  0  0  0  0  0  0  0  0  0
  148.0670  135.4870   91.7730 N   0  0  0  0  0  0  0  0  0  0  0  0
  149.1000  136.3780   91.9630 C   0  0  0  0  0  0  0  0  0  0  0  0
  148.7460  137.7440   91.4560 C   0  0  0  0  0  0  0  0  0  0  0  0
  147.4130  137.7500   90.9200 C   0  0  0  0  0  0  0  0  0  0  0  0
  147.3520  136.7820   89.8270 C   0  0  0  0  0  0  0  0  0  0  0  0
  147.7950  135.3760   90.3870 C   0  0  0  0  0  0  0  0  0  0  0  0
  142.8200  138.4070   91.0130 C   0  0  0  0  0  0  0  0  0  0  0  0
  142.0100  137.3240   90.9680 C   0  0  0  0  0  0  0  0  0  0  0  0
  140.6860  137.4550   90.4320 C   0  0  0  0  0  0  0  0  0  0  0  0
  139.7480  136.4620   90.3170 C   0  0  0  0  0  0  0  0  0  0  0  0
  138.4960  136.7440   89.7700 C   0  0  0  0  0  0  0  0  0  0  0  0
  138.1960  138.0460   89.3360 C   0  0  0  0  0  0  0  0  0  0  0  0
  139.1470  139.0640   89.4510 C   0  0  0  0  0  0  0  0  0  0  0  0
  138.7600  140.7150   88.9000 Cl  0  0  0  0  0  0  0  0  0  0  0  0
  140.3820  138.7890   89.9890 C   0  0  0  0  0  0  0  0  0  0  0  0
  141.9010  139.7240   90.3410 S   0  0  0  0  0  0  0  0  0  0  0  0
  144.7750  136.4500   91.0000 H   0  0  0  0  0  0  0  0  0  0  0  0
  146.5123  138.0305   92.8055 H   0  0  0  0  0  0  0  0  0  0  0  0
  147.1302  135.9581   93.5233 H   0  0  0  0  0  0  0  0  0  0  0  0
  146.1053  135.2133   92.2314 H   0  0  0  0  0  0  0  0  0  0  0  0
  149.3237  136.4424   93.0381 H   0  0  0  0  0  0  0  0  0  0  0  0
  149.9751  136.0173   91.4026 H   0  0  0  0  0  0  0  0  0  0  0  0
  148.8066  138.4650   92.2846 H   0  0  0  0  0  0  0  0  0  0  0  0
  149.4518  138.0227   90.6596 H   0  0  0  0  0  0  0  0  0  0  0  0
  147.1474  138.7558   90.5625 H   0  0  0  0  0  0  0  0  0  0  0  0
  146.3240  136.7215   89.4404 H   0  0  0  0  0  0  0  0  0  0  0  0
  148.0184  137.0915   89.0084 H   0  0  0  0  0  0  0  0  0  0  0  0
  146.9870  134.6466   90.2286 H   0  0  0  0  0  0  0  0  0  0  0  0
  148.7000  135.0388   89.8604 H   0  0  0  0  0  0  0  0  0  0  0  0
  142.3640  136.3510   91.3395 H   0  0  0  0  0  0  0  0  0  0  0  0
  139.9826  135.4423   90.6562 H   0  0  0  0  0  0  0  0  0  0  0  0
  137.7436  135.9468   89.6785 H   0  0  0  0  0  0  0  0  0  0  0  0
  137.2085  138.2653   88.9038 H   0  0  0  0  0  0  0  0  0  0  0  0
  1  2  2  0
  2  3  1  0
  3  4  1  0
  4  5  1  0
  5  6  1  0
  6  7  1  0
  7  8  1  0
  8  9  1  0
  9 10  1  0
 10 11  1  0
  2 12  1  0
 12 13  2  0
 13 14  1  0
 14 15  2  0
 15 16  1  0
 16 17  2  0
 17 18  1  0
 18 19  1  0
 18 20  2  0
 20 21  1  0
  9  4  1  0
 21 12  1  0
 11  6  1  0
 20 14  1  0
  3 22  1  0
  4 23  1  1
  5 24  1  0
  5 25  1  0
  7 26  1  0
  7 27  1  0
  8 28  1  0
  8 29  1  0
  9 30  1  0
 10 31  1  0
 10 32  1  0
 11 33  1  0
 11 34  1  0
 13 35  1  0
 15 36  1  0
 16 37  1  0
 17 38  1  0
M  END
>  <meeko>  (5)
{"is_sidechain": false}

>  <source_group>  (5)
CHRFAM7A at A face

>  <source_system>  (5)
CHRNA7_encenicline

>  <source_run>  (5)
hybrid_A_face_seed2207_ex32

>  <source_seed>  (5)
2207

>  <vina_pose_rank>  (5)
5

>  <vina_affinity_kcal_mol>  (5)
-6.6020000000000003

>  <vina_rmsd_to_crystal_angstrom>  (5)
7.6938000000000004

$$$$
CHRNA7_encenicline__hybrid_A_face_seed2207_ex32__pose06
     RDKit          3D

 38 41  0  0  0  0  0  0  0  0999 V2000
  144.4980  140.1700   90.3790 O   0  0  0  0  0  0  0  0  0  0  0  0
  144.0910  139.0790   90.5950 C   0  0  0  0  0  0  0  0  0  0  0  0
  145.0140  138.0290   90.9790 N   0  0  0  0  0  0  0  0  0  0  0  0
  146.4580  138.3350   91.0940 C   0  0  1  0  0  0  0  0  0  0  0  0
  147.0980  137.4510   92.1830 C   0  0  0  0  0  0  0  0  0  0  0  0
  148.1360  136.6750   91.6600 N   0  0  0  0  0  0  0  0  0  0  0  0
  149.1000  137.4820   91.0960 C   0  0  0  0  0  0  0  0  0  0  0  0
  148.5330  138.3180   89.9870 C   0  0  0  0  0  0  0  0  0  0  0  0
  147.1300  138.0560   89.8280 C   0  0  0  0  0  0  0  0  0  0  0  0
  146.9580  136.6380   89.5190 C   0  0  0  0  0  0  0  0  0  0  0  0
  147.6240  135.7970   90.6740 C   0  0  0  0  0  0  0  0  0  0  0  0
  142.5910  138.7910   90.4700 C   0  0  0  0  0  0  0  0  0  0  0  0
  141.6360  139.6930   90.1430 C   0  0  0  0  0  0  0  0  0  0  0  0
  140.2660  139.2730   90.0610 C   0  0  0  0  0  0  0  0  0  0  0  0
  139.1890  140.0560   89.7430 C   0  0  0  0  0  0  0  0  0  0  0  0
  137.9090  139.5020   89.7060 C   0  0  0  0  0  0  0  0  0  0  0  0
  137.7250  138.1390   89.9950 C   0  0  0  0  0  0  0  0  0  0  0  0
  138.8210  137.3340   90.3190 C   0  0  0  0  0  0  0  0  0  0  0  0
  138.5810  135.6050   90.6830 Cl  0  0  0  0  0  0  0  0  0  0  0  0
  140.0820  137.8770   90.3570 C   0  0  0  0  0  0  0  0  0  0  0  0
  141.7630  137.2790   90.7090 S   0  0  0  0  0  0  0  0  0  0  0  0
  144.6830  137.1200   91.1630 H   0  0  0  0  0  0  0  0  0  0  0  0
  146.5674  139.3980   91.3549 H   0  0  0  0  0  0  0  0  0  0  0  0
  147.4985  138.0961   92.9789 H   0  0  0  0  0  0  0  0  0  0  0  0
  146.3260  136.7763   92.5814 H   0  0  0  0  0  0  0  0  0  0  0  0
  149.5095  138.1461   91.8715 H   0  0  0  0  0  0  0  0  0  0  0  0
  149.8881  136.8391   90.6770 H   0  0  0  0  0  0  0  0  0  0  0  0
  148.6781  139.3821   90.2250 H   0  0  0  0  0  0  0  0  0  0  0  0
  149.0510  138.0656   89.0500 H   0  0  0  0  0  0  0  0  0  0  0  0
  146.7120  138.6812   89.0253 H   0  0  0  0  0  0  0  0  0  0  0  0
  145.8863  136.3984   89.4545 H   0  0  0  0  0  0  0  0  0  0  0  0
  147.4306  136.3996   88.5548 H   0  0  0  0  0  0  0  0  0  0  0  0
  146.8712  135.1353   91.1271 H   0  0  0  0  0  0  0  0  0  0  0  0
  148.4434  135.1902   90.2612 H   0  0  0  0  0  0  0  0  0  0  0  0
  141.9078  140.7397   89.9417 H   0  0  0  0  0  0  0  0  0  0  0  0
  139.3329  141.1228   89.5165 H   0  0  0  0  0  0  0  0  0  0  0  0
  137.0441  140.1319   89.4507 H   0  0  0  0  0  0  0  0  0  0  0  0
  136.7150  137.7041   89.9662 H   0  0  0  0  0  0  0  0  0  0  0  0
  1  2  2  0
  2  3  1  0
  3  4  1  0
  4  5  1  0
  5  6  1  0
  6  7  1  0
  7  8  1  0
  8  9  1  0
  9 10  1  0
 10 11  1  0
  2 12  1  0
 12 13  2  0
 13 14  1  0
 14 15  2  0
 15 16  1  0
 16 17  2  0
 17 18  1  0
 18 19  1  0
 18 20  2  0
 20 21  1  0
  9  4  1  0
 21 12  1  0
 11  6  1  0
 20 14  1  0
  3 22  1  0
  4 23  1  1
  5 24  1  0
  5 25  1  0
  7 26  1  0
  7 27  1  0
  8 28  1  0
  8 29  1  0
  9 30  1  0
 10 31  1  0
 10 32  1  0
 11 33  1  0
 11 34  1  0
 13 35  1  0
 15 36  1  0
 16 37  1  0
 17 38  1  0
M  END
>  <meeko>  (6)
{"is_sidechain": false}

>  <source_group>  (6)
CHRFAM7A at A face

>  <source_system>  (6)
CHRNA7_encenicline

>  <source_run>  (6)
hybrid_A_face_seed2207_ex32

>  <source_seed>  (6)
2207

>  <vina_pose_rank>  (6)
6

>  <vina_affinity_kcal_mol>  (6)
-6.3620000000000001

>  <vina_rmsd_to_crystal_angstrom>  (6)
7.6044

$$$$
CHRNA7_encenicline__hybrid_A_face_seed2207_ex32__pose07
     RDKit          3D

 38 41  0  0  0  0  0  0  0  0999 V2000
  144.1250  142.0470   92.6340 O   0  0  0  0  0  0  0  0  0  0  0  0
  143.8100  141.0890   93.2560 C   0  0  0  0  0  0  0  0  0  0  0  0
  142.9120  141.2270   94.3860 N   0  0  0  0  0  0  0  0  0  0  0  0
  142.4020  142.5690   94.7510 C   0  0  1  0  0  0  0  0  0  0  0  0
  140.9170  142.6920   94.3560 C   0  0  0  0  0  0  0  0  0  0  0  0
  140.1210  142.9840   95.4660 N   0  0  0  0  0  0  0  0  0  0  0  0
  140.5380  144.1540   96.0620 C   0  0  0  0  0  0  0  0  0  0  0  0
  141.9640  144.0570   96.5180 C   0  0  0  0  0  0  0  0  0  0  0  0
  142.5080  142.7680   96.1930 C   0  0  0  0  0  0  0  0  0  0  0  0
  141.7030  141.7470   96.8590 C   0  0  0  0  0  0  0  0  0  0  0  0
  140.2050  141.9250   96.4040 C   0  0  0  0  0  0  0  0  0  0  0  0
  144.3530  139.7130   92.8550 C   0  0  0  0  0  0  0  0  0  0  0  0
  143.6100  138.6540   92.4570 C   0  0  0  0  0  0  0  0  0  0  0  0
  144.2630  137.4240   92.1100 C   0  0  0  0  0  0  0  0  0  0  0  0
  143.6590  136.2690   91.6890 C   0  0  0  0  0  0  0  0  0  0  0  0
  144.4310  135.1470   91.3880 C   0  0  0  0  0  0  0  0  0  0  0  0
  145.8290  135.2010   91.5160 C   0  0  0  0  0  0  0  0  0  0  0  0
  146.4520  136.3780   91.9440 C   0  0  0  0  0  0  0  0  0  0  0  0
  148.2270  136.4420   92.1030 Cl  0  0  0  0  0  0  0  0  0  0  0  0
  145.6940  137.4840   92.2420 C   0  0  0  0  0  0  0  0  0  0  0  0
  146.0100  139.1810   92.8130 S   0  0  0  0  0  0  0  0  0  0  0  0
  142.6430  140.4360   94.9060 H   0  0  0  0  0  0  0  0  0  0  0  0
  143.0001  143.3240   94.2197 H   0  0  0  0  0  0  0  0  0  0  0  0
  140.8085  143.4976   93.6149 H   0  0  0  0  0  0  0  0  0  0  0  0
  140.5880  141.7305   93.9351 H   0  0  0  0  0  0  0  0  0  0  0  0
  140.4490  144.9766   95.3371 H   0  0  0  0  0  0  0  0  0  0  0  0
  139.9046  144.3396   96.9420 H   0  0  0  0  0  0  0  0  0  0  0  0
  142.5578  144.8371   96.0190 H   0  0  0  0  0  0  0  0  0  0  0  0
  141.9995  144.1941   97.6088 H   0  0  0  0  0  0  0  0  0  0  0  0
  143.5583  142.7029   96.5134 H   0  0  0  0  0  0  0  0  0  0  0  0
  142.0618  140.7466   96.5752 H   0  0  0  0  0  0  0  0  0  0  0  0
  141.7831  141.8532   97.9509 H   0  0  0  0  0  0  0  0  0  0  0  0
  139.8495  140.9937   95.9390 H   0  0  0  0  0  0  0  0  0  0  0  0
  139.5804  142.1584   97.2788 H   0  0  0  0  0  0  0  0  0  0  0  0
  142.5145  138.7354   92.4000 H   0  0  0  0  0  0  0  0  0  0  0  0
  142.5645  136.2263   91.5882 H   0  0  0  0  0  0  0  0  0  0  0  0
  143.9451  134.2197   91.0503 H   0  0  0  0  0  0  0  0  0  0  0  0
  146.4358  134.3147   91.2788 H   0  0  0  0  0  0  0  0  0  0  0  0
  1  2  2  0
  2  3  1  0
  3  4  1  0
  4  5  1  0
  5  6  1  0
  6  7  1  0
  7  8  1  0
  8  9  1  0
  9 10  1  0
 10 11  1  0
  2 12  1  0
 12 13  2  0
 13 14  1  0
 14 15  2  0
 15 16  1  0
 16 17  2  0
 17 18  1  0
 18 19  1  0
 18 20  2  0
 20 21  1  0
  9  4  1  0
 21 12  1  0
 11  6  1  0
 20 14  1  0
  3 22  1  0
  4 23  1  6
  5 24  1  0
  5 25  1  0
  7 26  1  0
  7 27  1  0
  8 28  1  0
  8 29  1  0
  9 30  1  0
 10 31  1  0
 10 32  1  0
 11 33  1  0
 11 34  1  0
 13 35  1  0
 15 36  1  0
 16 37  1  0
 17 38  1  0
M  END
>  <meeko>  (7)
{"is_sidechain": false}

>  <source_group>  (7)
CHRFAM7A at A face

>  <source_system>  (7)
CHRNA7_encenicline

>  <source_run>  (7)
hybrid_A_face_seed2207_ex32

>  <source_seed>  (7)
2207

>  <vina_pose_rank>  (7)
7

>  <vina_affinity_kcal_mol>  (7)
-6.3049999999999997

>  <vina_rmsd_to_crystal_angstrom>  (7)
4.9702000000000002

$$$$
CHRNA7_encenicline__hybrid_A_face_seed2207_ex32__pose08
     RDKit          3D

 38 41  0  0  0  0  0  0  0  0999 V2000
  144.6650  139.0580   91.6050 O   0  0  0  0  0  0  0  0  0  0  0  0
  144.0650  139.2980   90.6130 C   0  0  0  0  0  0  0  0  0  0  0  0
  144.7380  139.9420   89.5020 N   0  0  0  0  0  0  0  0  0  0  0  0
  146.1710  140.2960   89.6240 C   0  0  1  0  0  0  0  0  0  0  0  0
  147.0450  139.1080   89.1750 C   0  0  0  0  0  0  0  0  0  0  0  0
  147.8860  139.4690   88.1190 N   0  0  0  0  0  0  0  0  0  0  0  0
  148.6930  140.5230   88.4870 C   0  0  0  0  0  0  0  0  0  0  0  0
  147.8820  141.7240   88.8750 C   0  0  0  0  0  0  0  0  0  0  0  0
  146.4790  141.4380   88.7680 C   0  0  0  0  0  0  0  0  0  0  0  0
  146.1890  141.0670   87.3850 C   0  0  0  0  0  0  0  0  0  0  0  0
  147.1070  139.8460   86.9980 C   0  0  0  0  0  0  0  0  0  0  0  0
  142.5830  138.9210   90.5140 C   0  0  0  0  0  0  0  0  0  0  0  0
  141.5650  139.7740   90.2530 C   0  0  0  0  0  0  0  0  0  0  0  0
  140.2220  139.2710   90.1890 C   0  0  0  0  0  0  0  0  0  0  0  0
  139.0890  139.9980   89.9350 C   0  0  0  0  0  0  0  0  0  0  0  0
  137.8460  139.3650   89.9060 C   0  0  0  0  0  0  0  0  0  0  0  0
  137.7550  137.9820   90.1370 C   0  0  0  0  0  0  0  0  0  0  0  0
  138.9080  137.2340   90.3960 C   0  0  0  0  0  0  0  0  0  0  0  0
  138.7880  135.4800   90.6870 Cl  0  0  0  0  0  0  0  0  0  0  0  0
  140.1340  137.8550   90.4250 C   0  0  0  0  0  0  0  0  0  0  0  0
  141.8580  137.3500   90.7060 S   0  0  0  0  0  0  0  0  0  0  0  0
  144.2470  140.1430   88.6730 H   0  0  0  0  0  0  0  0  0  0  0  0
  146.3787  140.5451   90.6751 H   0  0  0  0  0  0  0  0  0  0  0  0
  147.6590  138.7733   90.0242 H   0  0  0  0  0  0  0  0  0  0  0  0
  146.3831  138.2992   88.8318 H   0  0  0  0  0  0  0  0  0  0  0  0
  149.3123  140.2176   89.3432 H   0  0  0  0  0  0  0  0  0  0  0  0
  149.3226  140.7937   87.6266 H   0  0  0  0  0  0  0  0  0  0  0  0
  148.1173  141.9998   89.9136 H   0  0  0  0  0  0  0  0  0  0  0  0
  148.1289  142.5546   88.1974 H   0  0  0  0  0  0  0  0  0  0  0  0
  145.8848  142.3140   89.0672 H   0  0  0  0  0  0  0  0  0  0  0  0
  145.1309  140.7816   87.2904 H   0  0  0  0  0  0  0  0  0  0  0  0
  146.3860  141.9169   86.7151 H   0  0  0  0  0  0  0  0  0  0  0  0
  146.4786  138.9987   86.6862 H   0  0  0  0  0  0  0  0  0  0  0  0
  147.7708  140.1336   86.1694 H   0  0  0  0  0  0  0  0  0  0  0  0
  141.7651  140.8435   90.0913 H   0  0  0  0  0  0  0  0  0  0  0  0
  139.1593  141.0807   89.7539 H   0  0  0  0  0  0  0  0  0  0  0  0
  136.9365  139.9491   89.7021 H   0  0  0  0  0  0  0  0  0  0  0  0
  136.7735  137.4859   90.1141 H   0  0  0  0  0  0  0  0  0  0  0  0
  1  2  2  0
  2  3  1  0
  3  4  1  0
  4  5  1  0
  5  6  1  0
  6  7  1  0
  7  8  1  0
  8  9  1  0
  9 10  1  0
 10 11  1  0
  2 12  1  0
 12 13  2  0
 13 14  1  0
 14 15  2  0
 15 16  1  0
 16 17  2  0
 17 18  1  0
 18 19  1  0
 18 20  2  0
 20 21  1  0
  9  4  1  0
 21 12  1  0
 11  6  1  0
 20 14  1  0
  3 22  1  0
  4 23  1  1
  5 24  1  0
  5 25  1  0
  7 26  1  0
  7 27  1  0
  8 28  1  0
  8 29  1  0
  9 30  1  0
 10 31  1  0
 10 32  1  0
 11 33  1  0
 11 34  1  0
 13 35  1  0
 15 36  1  0
 16 37  1  0
 17 38  1  0
M  END
>  <meeko>  (8)
{"is_sidechain": false}

>  <source_group>  (8)
CHRFAM7A at A face

>  <source_system>  (8)
CHRNA7_encenicline

>  <source_run>  (8)
hybrid_A_face_seed2207_ex32

>  <source_seed>  (8)
2207

>  <vina_pose_rank>  (8)
8

>  <vina_affinity_kcal_mol>  (8)
-6.2999999999999998

>  <vina_rmsd_to_crystal_angstrom>  (8)
7.0282

$$$$
CHRNA7_encenicline__hybrid_A_face_seed2207_ex32__pose09
     RDKit          3D

 38 41  0  0  0  0  0  0  0  0999 V2000
  146.3070  140.4480   92.6850 O   0  0  0  0  0  0  0  0  0  0  0  0
  145.2190  139.9920   92.5820 C   0  0  0  0  0  0  0  0  0  0  0  0
  145.0340  138.7110   91.9290 N   0  0  0  0  0  0  0  0  0  0  0  0
  146.2110  137.9900   91.3930 C   0  0  1  0  0  0  0  0  0  0  0  0
  146.6790  136.9240   92.4040 C   0  0  0  0  0  0  0  0  0  0  0  0
  146.6610  135.6470   91.8380 N   0  0  0  0  0  0  0  0  0  0  0  0
  147.4640  135.6060   90.7200 C   0  0  0  0  0  0  0  0  0  0  0  0
  147.0080  136.5880   89.6810 C   0  0  0  0  0  0  0  0  0  0  0  0
  145.8590  137.3130   90.1480 C   0  0  0  0  0  0  0  0  0  0  0  0
  144.7930  136.3560   90.4300 C   0  0  0  0  0  0  0  0  0  0  0  0
  145.3350  135.3060   91.4740 C   0  0  0  0  0  0  0  0  0  0  0  0
  144.0180  140.7600   93.1460 C   0  0  0  0  0  0  0  0  0  0  0  0
  142.9420  141.1760   92.4390 C   0  0  0  0  0  0  0  0  0  0  0  0
  141.8900  141.8870   93.1080 C   0  0  0  0  0  0  0  0  0  0  0  0
  140.7410  142.3700   92.5400 C   0  0  0  0  0  0  0  0  0  0  0  0
  139.8050  143.0460   93.3230 C   0  0  0  0  0  0  0  0  0  0  0  0
  140.0410  143.2310   94.6960 C   0  0  0  0  0  0  0  0  0  0  0  0
  141.2110  142.7390   95.2820 C   0  0  0  0  0  0  0  0  0  0  0  0
  141.5040  142.9750   97.0250 Cl  0  0  0  0  0  0  0  0  0  0  0  0
  142.1350  142.0730   94.5130 C   0  0  0  0  0  0  0  0  0  0  0  0
  143.7450  141.2750   94.7860 S   0  0  0  0  0  0  0  0  0  0  0  0
  144.1330  138.3240   91.8420 H   0  0  0  0  0  0  0  0  0  0  0  0
  147.0127  138.7212   91.2123 H   0  0  0  0  0  0  0  0  0  0  0  0
  147.7045  137.1597   92.7247 H   0  0  0  0  0  0  0  0  0  0  0  0
  145.9916  136.9335   93.2627 H   0  0  0  0  0  0  0  0  0  0  0  0
  148.4965  135.8479   91.0121 H   0  0  0  0  0  0  0  0  0  0  0  0
  147.4062  134.5953   90.2896 H   0  0  0  0  0  0  0  0  0  0  0  0
  147.8224  137.2965   89.4696 H   0  0  0  0  0  0  0  0  0  0  0  0
  146.7370  136.0401   88.7664 H   0  0  0  0  0  0  0  0  0  0  0  0
  145.5332  138.0431   89.3925 H   0  0  0  0  0  0  0  0  0  0  0  0
  143.9222  136.8817   90.8488 H   0  0  0  0  0  0  0  0  0  0  0  0
  144.4856  135.8469   89.5046 H   0  0  0  0  0  0  0  0  0  0  0  0
  144.6951  135.3139   92.3687 H   0  0  0  0  0  0  0  0  0  0  0  0
  145.3235  134.3017   91.0254 H   0  0  0  0  0  0  0  0  0  0  0  0
  142.8741  140.9710   91.3604 H   0  0  0  0  0  0  0  0  0  0  0  0
  140.5561  142.2247   91.4654 H   0  0  0  0  0  0  0  0  0  0  0  0
  138.8827  143.4340   92.8660 H   0  0  0  0  0  0  0  0  0  0  0  0
  139.3023  143.7649   95.3119 H   0  0  0  0  0  0  0  0  0  0  0  0
  1  2  2  0
  2  3  1  0
  3  4  1  0
  4  5  1  0
  5  6  1  0
  6  7  1  0
  7  8  1  0
  8  9  1  0
  9 10  1  0
 10 11  1  0
  2 12  1  0
 12 13  2  0
 13 14  1  0
 14 15  2  0
 15 16  1  0
 16 17  2  0
 17 18  1  0
 18 19  1  0
 18 20  2  0
 20 21  1  0
  9  4  1  0
 21 12  1  0
 11  6  1  0
 20 14  1  0
  3 22  1  0
  4 23  1  6
  5 24  1  0
  5 25  1  0
  7 26  1  0
  7 27  1  0
  8 28  1  0
  8 29  1  0
  9 30  1  0
 10 31  1  0
 10 32  1  0
 11 33  1  0
 11 34  1  0
 13 35  1  0
 15 36  1  0
 16 37  1  0
 17 38  1  0
M  END
>  <meeko>  (9)
{"is_sidechain": false}

>  <source_group>  (9)
CHRFAM7A at A face

>  <source_system>  (9)
CHRNA7_encenicline

>  <source_run>  (9)
hybrid_A_face_seed2207_ex32

>  <source_seed>  (9)
2207

>  <vina_pose_rank>  (9)
9

>  <vina_affinity_kcal_mol>  (9)
-6.2859999999999996

>  <vina_rmsd_to_crystal_angstrom>  (9)
7.8415999999999997

$$$$
CHRNA7_encenicline__hybrid_A_face_seed2207_ex32__pose10
     RDKit          3D

 38 41  0  0  0  0  0  0  0  0999 V2000
  146.0480  140.4220   92.8850 O   0  0  0  0  0  0  0  0  0  0  0  0
  144.9830  139.9030   92.8840 C   0  0  0  0  0  0  0  0  0  0  0  0
  144.8150  138.6040   92.2630 N   0  0  0  0  0  0  0  0  0  0  0  0
  145.9800  137.9430   91.6320 C   0  0  1  0  0  0  0  0  0  0  0  0
  146.5450  136.8620   92.5740 C   0  0  0  0  0  0  0  0  0  0  0  0
  146.5340  135.6040   91.9660 N   0  0  0  0  0  0  0  0  0  0  0  0
  147.2680  135.6290   90.8000 C   0  0  0  0  0  0  0  0  0  0  0  0
  146.7150  136.6270   89.8260 C   0  0  0  0  0  0  0  0  0  0  0  0
  145.5740  137.2960   90.3870 C   0  0  0  0  0  0  0  0  0  0  0  0
  144.5600  136.2920   90.7010 C   0  0  0  0  0  0  0  0  0  0  0  0
  145.2000  135.2290   91.6720 C   0  0  0  0  0  0  0  0  0  0  0  0
  143.7940  140.6100   93.5450 C   0  0  0  0  0  0  0  0  0  0  0  0
  143.4870  140.5780   94.8620 C   0  0  0  0  0  0  0  0  0  0  0  0
  142.3380  141.2950   95.3370 C   0  0  0  0  0  0  0  0  0  0  0  0
  141.8940  141.3640   96.6310 C   0  0  0  0  0  0  0  0  0  0  0  0
  140.7530  142.1050   96.9400 C   0  0  0  0  0  0  0  0  0  0  0  0
  140.0580  142.7810   95.9230 C   0  0  0  0  0  0  0  0  0  0  0  0
  140.5060  142.7160   94.6000 C   0  0  0  0  0  0  0  0  0  0  0  0
  139.6210  143.5770   93.3140 Cl  0  0  0  0  0  0  0  0  0  0  0  0
  141.6290  141.9860   94.2930 C   0  0  0  0  0  0  0  0  0  0  0  0
  142.5790  141.6030   92.7910 S   0  0  0  0  0  0  0  0  0  0  0  0
  143.9340  138.1650   92.2600 H   0  0  0  0  0  0  0  0  0  0  0  0
  146.7446  138.7074   91.4294 H   0  0  0  0  0  0  0  0  0  0  0  0
  147.5802  137.1230   92.8392 H   0  0  0  0  0  0  0  0  0  0  0  0
  145.9125  136.8192   93.4730 H   0  0  0  0  0  0  0  0  0  0  0  0
  148.3076  135.8988   91.0374 H   0  0  0  0  0  0  0  0  0  0  0  0
  147.2190  134.6316   90.3388 H   0  0  0  0  0  0  0  0  0  0  0  0
  147.4906  137.3702   89.5891 H   0  0  0  0  0  0  0  0  0  0  0  0
  146.4051  136.0992   88.9120 H   0  0  0  0  0  0  0  0  0  0  0  0
  145.1783  138.0388   89.6788 H   0  0  0  0  0  0  0  0  0  0  0  0
  143.6999  136.7725   91.1904 H   0  0  0  0  0  0  0  0  0  0  0  0
  144.2132  135.8025   89.7790 H   0  0  0  0  0  0  0  0  0  0  0  0
  144.6171  135.1852   92.6039 H   0  0  0  0  0  0  0  0  0  0  0  0
  145.1938  134.2402   91.1901 H   0  0  0  0  0  0  0  0  0  0  0  0
  144.1130  140.0070   95.5634 H   0  0  0  0  0  0  0  0  0  0  0  0
  142.4376  140.8346   97.4274 H   0  0  0  0  0  0  0  0  0  0  0  0
  140.3976  142.1600   97.9795 H   0  0  0  0  0  0  0  0  0  0  0  0
  139.1579  143.3637   96.1686 H   0  0  0  0  0  0  0  0  0  0  0  0
  1  2  2  0
  2  3  1  0
  3  4  1  0
  4  5  1  0
  5  6  1  0
  6  7  1  0
  7  8  1  0
  8  9  1  0
  9 10  1  0
 10 11  1  0
  2 12  1  0
 12 13  2  0
 13 14  1  0
 14 15  2  0
 15 16  1  0
 16 17  2  0
 17 18  1  0
 18 19  1  0
 18 20  2  0
 20 21  1  0
  9  4  1  0
 21 12  1  0
 11  6  1  0
 20 14  1  0
  3 22  1  0
  4 23  1  6
  5 24  1  0
  5 25  1  0
  7 26  1  0
  7 27  1  0
  8 28  1  0
  8 29  1  0
  9 30  1  0
 10 31  1  0
 10 32  1  0
 11 33  1  0
 11 34  1  0
 13 35  1  0
 15 36  1  0
 16 37  1  0
 17 38  1  0
M  END
>  <meeko>  (10)
{"is_sidechain": false}

>  <source_group>  (10)
CHRFAM7A at A face

>  <source_system>  (10)
CHRNA7_encenicline

>  <source_run>  (10)
hybrid_A_face_seed2207_ex32

>  <source_seed>  (10)
2207

>  <vina_pose_rank>  (10)
10

>  <vina_affinity_kcal_mol>  (10)
-6.1849999999999996

>  <vina_rmsd_to_crystal_angstrom>  (10)
7.8819999999999997

$$$$
CHRNA7_encenicline__hybrid_A_face_seed2207_ex32__pose11
     RDKit          3D

 38 41  0  0  0  0  0  0  0  0999 V2000
  145.0000  137.8210   91.9180 O   0  0  0  0  0  0  0  0  0  0  0  0
  144.5190  138.4820   91.0610 C   0  0  0  0  0  0  0  0  0  0  0  0
  145.3580  139.3730   90.2830 N   0  0  0  0  0  0  0  0  0  0  0  0
  146.8080  139.4480   90.5750 C   0  0  1  0  0  0  0  0  0  0  0  0
  147.6060  139.5130   89.2570 C   0  0  0  0  0  0  0  0  0  0  0  0
  148.3880  140.6700   89.1960 N   0  0  0  0  0  0  0  0  0  0  0  0
  149.2560  140.7180   90.2650 C   0  0  0  0  0  0  0  0  0  0  0  0
  148.5180  140.7180   91.5700 C   0  0  0  0  0  0  0  0  0  0  0  0
  147.1010  140.6530   91.3460 C   0  0  0  0  0  0  0  0  0  0  0  0
  146.7070  141.8140   90.5520 C   0  0  0  0  0  0  0  0  0  0  0  0
  147.5510  141.8130   89.2210 C   0  0  0  0  0  0  0  0  0  0  0  0
  143.0160  138.3840   90.7810 C   0  0  0  0  0  0  0  0  0  0  0  0
  142.2840  137.2460   90.7740 C   0  0  0  0  0  0  0  0  0  0  0  0
  140.8780  137.3120   90.4960 C   0  0  0  0  0  0  0  0  0  0  0  0
  140.0030  136.2590   90.4530 C   0  0  0  0  0  0  0  0  0  0  0  0
  138.6560  136.4810   90.1660 C   0  0  0  0  0  0  0  0  0  0  0  0
  138.1960  137.7860   89.9200 C   0  0  0  0  0  0  0  0  0  0  0  0
  139.0840  138.8660   89.9630 C   0  0  0  0  0  0  0  0  0  0  0  0
  138.4940  140.5190   89.6520 Cl  0  0  0  0  0  0  0  0  0  0  0  0
  140.4110  138.6490   90.2450 C   0  0  0  0  0  0  0  0  0  0  0  0
  141.9050  139.6720   90.4120 S   0  0  0  0  0  0  0  0  0  0  0  0
  144.9670  139.9240   89.5680 H   0  0  0  0  0  0  0  0  0  0  0  0
  147.0937  138.5539   91.1485 H   0  0  0  0  0  0  0  0  0  0  0  0
  148.2621  138.6326   89.1911 H   0  0  0  0  0  0  0  0  0  0  0  0
  146.8936  139.5295   88.4190 H   0  0  0  0  0  0  0  0  0  0  0  0
  149.9178  139.8401   90.2282 H   0  0  0  0  0  0  0  0  0  0  0  0
  149.8379  141.6490   90.1966 H   0  0  0  0  0  0  0  0  0  0  0  0
  148.8312  139.8461   92.1631 H   0  0  0  0  0  0  0  0  0  0  0  0
  148.7507  141.6474   92.1105 H   0  0  0  0  0  0  0  0  0  0  0  0
  146.5607  140.6374   92.3041 H   0  0  0  0  0  0  0  0  0  0  0  0
  145.6350  141.7544   90.3127 H   0  0  0  0  0  0  0  0  0  0  0  0
  146.8914  142.7397   91.1169 H   0  0  0  0  0  0  0  0  0  0  0  0
  146.8721  141.7898   88.3558 H   0  0  0  0  0  0  0  0  0  0  0  0
  148.1687  142.7221   89.1766 H   0  0  0  0  0  0  0  0  0  0  0  0
  142.7633  136.2776   90.9799 H   0  0  0  0  0  0  0  0  0  0  0  0
  140.3628  135.2374   90.6450 H   0  0  0  0  0  0  0  0  0  0  0  0
  137.9540  135.6348   90.1322 H   0  0  0  0  0  0  0  0  0  0  0  0
  137.1337  137.9588   89.6928 H   0  0  0  0  0  0  0  0  0  0  0  0
  1  2  2  0
  2  3  1  0
  3  4  1  0
  4  5  1  0
  5  6  1  0
  6  7  1  0
  7  8  1  0
  8  9  1  0
  9 10  1  0
 10 11  1  0
  2 12  1  0
 12 13  2  0
 13 14  1  0
 14 15  2  0
 15 16  1  0
 16 17  2  0
 17 18  1  0
 18 19  1  0
 18 20  2  0
 20 21  1  0
  9  4  1  0
 21 12  1  0
 11  6  1  0
 20 14  1  0
  3 22  1  0
  4 23  1  1
  5 24  1  0
  5 25  1  0
  7 26  1  0
  7 27  1  0
  8 28  1  0
  8 29  1  0
  9 30  1  0
 10 31  1  0
 10 32  1  0
 11 33  1  0
 11 34  1  0
 13 35  1  0
 15 36  1  0
 16 37  1  0
 17 38  1  0
M  END
>  <meeko>  (11)
{"is_sidechain": false}

>  <source_group>  (11)
CHRFAM7A at A face

>  <source_system>  (11)
CHRNA7_encenicline

>  <source_run>  (11)
hybrid_A_face_seed2207_ex32

>  <source_seed>  (11)
2207

>  <vina_pose_rank>  (11)
11

>  <vina_affinity_kcal_mol>  (11)
-6.0209999999999999

>  <vina_rmsd_to_crystal_angstrom>  (11)
7.1016000000000004

$$$$
CHRNA7_encenicline__hybrid_A_face_seed2207_ex32__pose12
     RDKit          3D

 38 41  0  0  0  0  0  0  0  0999 V2000
  140.0340  139.0120   90.2990 O   0  0  0  0  0  0  0  0  0  0  0  0
  140.5440  140.0660   90.4760 C   0  0  0  0  0  0  0  0  0  0  0  0
  141.9700  140.1430   90.7230 N   0  0  0  0  0  0  0  0  0  0  0  0
  142.7730  138.8990   90.7520 C   0  0  1  0  0  0  0  0  0  0  0  0
  143.9390  139.0030   89.7500 C   0  0  0  0  0  0  0  0  0  0  0  0
  145.1720  138.8460   90.3890 N   0  0  0  0  0  0  0  0  0  0  0  0
  145.2260  137.6310   91.0360 C   0  0  0  0  0  0  0  0  0  0  0  0
  144.1420  137.5110   92.0670 C   0  0  0  0  0  0  0  0  0  0  0  0
  143.3340  138.6980   92.0850 C   0  0  0  0  0  0  0  0  0  0  0  0
  144.1940  139.8360   92.3980 C   0  0  0  0  0  0  0  0  0  0  0  0
  145.3540  139.8870   91.3330 C   0  0  0  0  0  0  0  0  0  0  0  0
  139.6890  141.3370   90.4400 C   0  0  0  0  0  0  0  0  0  0  0  0
  139.5500  142.2270   91.4500 C   0  0  0  0  0  0  0  0  0  0  0  0
  138.7120  143.3780   91.2670 C   0  0  0  0  0  0  0  0  0  0  0  0
  138.4700  144.3660   92.1840 C   0  0  0  0  0  0  0  0  0  0  0  0
  137.6260  145.4290   91.8590 C   0  0  0  0  0  0  0  0  0  0  0  0
  137.0230  145.4850   90.5910 C   0  0  0  0  0  0  0  0  0  0  0  0
  137.2670  144.4800   89.6500 C   0  0  0  0  0  0  0  0  0  0  0  0
  136.5020  144.5570   88.0410 Cl  0  0  0  0  0  0  0  0  0  0  0  0
  138.0980  143.4320   89.9670 C   0  0  0  0  0  0  0  0  0  0  0  0
  138.7110  141.9390   89.1310 S   0  0  0  0  0  0  0  0  0  0  0  0
  142.4020  141.0160   90.8690 H   0  0  0  0  0  0  0  0  0  0  0  0
  142.1178  138.0565   90.4860 H   0  0  0  0  0  0  0  0  0  0  0  0
  143.8277  138.2178   88.9877 H   0  0  0  0  0  0  0  0  0  0  0  0
  143.9118  140.0006   89.2873 H   0  0  0  0  0  0  0  0  0  0  0  0
  145.1068  136.8259   90.2960 H   0  0  0  0  0  0  0  0  0  0  0  0
  146.1980  137.5527   91.5449 H   0  0  0  0  0  0  0  0  0  0  0  0
  143.5080  136.6447   91.8271 H   0  0  0  0  0  0  0  0  0  0  0  0
  144.6040  137.3791   93.0565 H   0  0  0  0  0  0  0  0  0  0  0  0
  142.5302  138.6034   92.8299 H   0  0  0  0  0  0  0  0  0  0  0  0
  143.6093  140.7668   92.3560 H   0  0  0  0  0  0  0  0  0  0  0  0
  144.6126  139.7279   93.4095 H   0  0  0  0  0  0  0  0  0  0  0  0
  145.3358  140.8581   90.8166 H   0  0  0  0  0  0  0  0  0  0  0  0
  146.3227  139.7597   91.8383 H   0  0  0  0  0  0  0  0  0  0  0  0
  140.0751  142.0696   92.4037 H   0  0  0  0  0  0  0  0  0  0  0  0
  138.9410  144.3217   93.1771 H   0  0  0  0  0  0  0  0  0  0  0  0
  137.4329  146.2229   92.5954 H   0  0  0  0  0  0  0  0  0  0  0  0
  136.3565  146.3226   90.3377 H   0  0  0  0  0  0  0  0  0  0  0  0
  1  2  2  0
  2  3  1  0
  3  4  1  0
  4  5  1  0
  5  6  1  0
  6  7  1  0
  7  8  1  0
  8  9  1  0
  9 10  1  0
 10 11  1  0
  2 12  1  0
 12 13  2  0
 13 14  1  0
 14 15  2  0
 15 16  1  0
 16 17  2  0
 17 18  1  0
 18 19  1  0
 18 20  2  0
 20 21  1  0
  9  4  1  0
 21 12  1  0
 11  6  1  0
 20 14  1  0
  3 22  1  0
  4 23  1  6
  5 24  1  0
  5 25  1  0
  7 26  1  0
  7 27  1  0
  8 28  1  0
  8 29  1  0
  9 30  1  0
 10 31  1  0
 10 32  1  0
 11 33  1  0
 11 34  1  0
 13 35  1  0
 15 36  1  0
 16 37  1  0
 17 38  1  0
M  END
>  <meeko>  (12)
{"is_sidechain": false}

>  <source_group>  (12)
CHRFAM7A at A face

>  <source_system>  (12)
CHRNA7_encenicline

>  <source_run>  (12)
hybrid_A_face_seed2207_ex32

>  <source_seed>  (12)
2207

>  <vina_pose_rank>  (12)
12

>  <vina_affinity_kcal_mol>  (12)
-6.0110000000000001

>  <vina_rmsd_to_crystal_angstrom>  (12)
8.6394000000000002

$$$$
CHRNA7_encenicline__hybrid_A_face_seed2207_ex32__pose13
     RDKit          3D

 38 41  0  0  0  0  0  0  0  0999 V2000
  144.4730  142.0210   92.5740 O   0  0  0  0  0  0  0  0  0  0  0  0
  144.0930  141.0440   93.1260 C   0  0  0  0  0  0  0  0  0  0  0  0
  143.0820  141.1490   94.1610 N   0  0  0  0  0  0  0  0  0  0  0  0
  142.5400  142.4800   94.5170 C   0  0  1  0  0  0  0  0  0  0  0  0
  141.0400  142.5460   94.1710 C   0  0  0  0  0  0  0  0  0  0  0  0
  140.2710  142.8340   95.3020 N   0  0  0  0  0  0  0  0  0  0  0  0
  140.6690  144.0290   95.8600 C   0  0  0  0  0  0  0  0  0  0  0  0
  142.1120  143.9890   96.2700 C   0  0  0  0  0  0  0  0  0  0  0  0
  142.6880  142.7120   95.9510 C   0  0  0  0  0  0  0  0  0  0  0  0
  141.9400  141.6790   96.6630 C   0  0  0  0  0  0  0  0  0  0  0  0
  140.4220  141.7980   96.2560 C   0  0  0  0  0  0  0  0  0  0  0  0
  144.6710  139.6790   92.7360 C   0  0  0  0  0  0  0  0  0  0  0  0
  145.9770  139.4100   92.5050 C   0  0  0  0  0  0  0  0  0  0  0  0
  146.3700  138.0760   92.1490 C   0  0  0  0  0  0  0  0  0  0  0  0
  147.6420  137.6420   91.8860 C   0  0  0  0  0  0  0  0  0  0  0  0
  147.8690  136.3070   91.5490 C   0  0  0  0  0  0  0  0  0  0  0  0
  146.7920  135.4070   91.4800 C   0  0  0  0  0  0  0  0  0  0  0  0
  145.4910  135.8440   91.7480 C   0  0  0  0  0  0  0  0  0  0  0  0
  144.1290  134.6970   91.6600 Cl  0  0  0  0  0  0  0  0  0  0  0  0
  145.2650  137.1580   92.0800 C   0  0  0  0  0  0  0  0  0  0  0  0
  143.8210  138.1790   92.5010 S   0  0  0  0  0  0  0  0  0  0  0  0
  142.7590  140.3420   94.6220 H   0  0  0  0  0  0  0  0  0  0  0  0
  143.0940  143.2433   93.9509 H   0  0  0  0  0  0  0  0  0  0  0  0
  140.8799  143.3325   93.4188 H   0  0  0  0  0  0  0  0  0  0  0  0
  140.7299  141.5656   93.7803 H   0  0  0  0  0  0  0  0  0  0  0  0
  140.5289  144.8327   95.1221 H   0  0  0  0  0  0  0  0  0  0  0  0
  140.0595  144.2118   96.7572 H   0  0  0  0  0  0  0  0  0  0  0  0
  142.6623  144.7782   95.7368 H   0  0  0  0  0  0  0  0  0  0  0  0
  142.1789  144.1494   97.3562 H   0  0  0  0  0  0  0  0  0  0  0  0
  143.7501  142.6882   96.2364 H   0  0  0  0  0  0  0  0  0  0  0  0
  142.3225  140.6854   96.3864 H   0  0  0  0  0  0  0  0  0  0  0  0
  142.0526  141.8103   97.7493 H   0  0  0  0  0  0  0  0  0  0  0  0
  140.0829  140.8462   95.8211 H   0  0  0  0  0  0  0  0  0  0  0  0
  139.8194  142.0281   97.1470 H   0  0  0  0  0  0  0  0  0  0  0  0
  146.7309  140.2066   92.5893 H   0  0  0  0  0  0  0  0  0  0  0  0
  148.4853  138.3462   91.9404 H   0  0  0  0  0  0  0  0  0  0  0  0
  148.8909  135.9592   91.3374 H   0  0  0  0  0  0  0  0  0  0  0  0
  146.9730  134.3550   91.2142 H   0  0  0  0  0  0  0  0  0  0  0  0
  1  2  2  0
  2  3  1  0
  3  4  1  0
  4  5  1  0
  5  6  1  0
  6  7  1  0
  7  8  1  0
  8  9  1  0
  9 10  1  0
 10 11  1  0
  2 12  1  0
 12 13  2  0
 13 14  1  0
 14 15  2  0
 15 16  1  0
 16 17  2  0
 17 18  1  0
 18 19  1  0
 18 20  2  0
 20 21  1  0
  9  4  1  0
 21 12  1  0
 11  6  1  0
 20 14  1  0
  3 22  1  0
  4 23  1  6
  5 24  1  0
  5 25  1  0
  7 26  1  0
  7 27  1  0
  8 28  1  0
  8 29  1  0
  9 30  1  0
 10 31  1  0
 10 32  1  0
 11 33  1  0
 11 34  1  0
 13 35  1  0
 15 36  1  0
 16 37  1  0
 17 38  1  0
M  END
>  <meeko>  (13)
{"is_sidechain": false}

>  <source_group>  (13)
CHRFAM7A at A face

>  <source_system>  (13)
CHRNA7_encenicline

>  <source_run>  (13)
hybrid_A_face_seed2207_ex32

>  <source_seed>  (13)
2207

>  <vina_pose_rank>  (13)
13

>  <vina_affinity_kcal_mol>  (13)
-6.0090000000000003

>  <vina_rmsd_to_crystal_angstrom>  (13)
5.1772999999999998

$$$$
CHRNA7_encenicline__hybrid_A_face_seed2207_ex32__pose14
     RDKit          3D

 38 41  0  0  0  0  0  0  0  0999 V2000
  143.7880  139.3950   95.6180 O   0  0  0  0  0  0  0  0  0  0  0  0
  143.6340  140.0960   94.6760 C   0  0  0  0  0  0  0  0  0  0  0  0
  143.0090  141.3940   94.8380 N   0  0  0  0  0  0  0  0  0  0  0  0
  142.5660  141.8260   96.1830 C   0  0  1  0  0  0  0  0  0  0  0  0
  142.8390  143.3320   96.3670 C   0  0  0  0  0  0  0  0  0  0  0  0
  141.6610  144.0290   96.6500 N   0  0  0  0  0  0  0  0  0  0  0  0
  141.0670  143.5250   97.7870 C   0  0  0  0  0  0  0  0  0  0  0  0
  140.7280  142.0720   97.6290 C   0  0  0  0  0  0  0  0  0  0  0  0
  141.1320  141.6010   96.3340 C   0  0  0  0  0  0  0  0  0  0  0  0
  140.4340  142.3870   95.3200 C   0  0  0  0  0  0  0  0  0  0  0  0
  140.7640  143.9090   95.5610 C   0  0  0  0  0  0  0  0  0  0  0  0
  144.1020  139.6230   93.2950 C   0  0  0  0  0  0  0  0  0  0  0  0
  144.4460  138.3560   92.9670 C   0  0  0  0  0  0  0  0  0  0  0  0
  144.8650  138.0630   91.6260 C   0  0  0  0  0  0  0  0  0  0  0  0
  145.2410  136.8400   91.1360 C   0  0  0  0  0  0  0  0  0  0  0  0
  145.6270  136.7110   89.8020 C   0  0  0  0  0  0  0  0  0  0  0  0
  145.6300  137.8360   88.9590 C   0  0  0  0  0  0  0  0  0  0  0  0
  145.2460  139.0870   89.4530 C   0  0  0  0  0  0  0  0  0  0  0  0
  145.2490  140.5100   88.3790 Cl  0  0  0  0  0  0  0  0  0  0  0  0
  144.8650  139.2160   90.7670 C   0  0  0  0  0  0  0  0  0  0  0  0
  144.3030  140.5670   91.8470 S   0  0  0  0  0  0  0  0  0  0  0  0
  142.8800  141.9830   94.0600 H   0  0  0  0  0  0  0  0  0  0  0  0
  143.1206  141.2444   96.9341 H   0  0  0  0  0  0  0  0  0  0  0  0
  143.5457  143.4694   97.1987 H   0  0  0  0  0  0  0  0  0  0  0  0
  143.2602  143.7263   95.4305 H   0  0  0  0  0  0  0  0  0  0  0  0
  141.7592  143.6410   98.6340 H   0  0  0  0  0  0  0  0  0  0  0  0
  140.1347  144.0807   97.9661 H   0  0  0  0  0  0  0  0  0  0  0  0
  141.2496  141.4919   98.4045 H   0  0  0  0  0  0  0  0  0  0  0  0
  139.6399  141.9467   97.7304 H   0  0  0  0  0  0  0  0  0  0  0  0
  140.8979  140.5317   96.2249 H   0  0  0  0  0  0  0  0  0  0  0  0
  140.7735  142.0868   94.3177 H   0  0  0  0  0  0  0  0  0  0  0  0
  139.3492  142.2184   95.3897 H   0  0  0  0  0  0  0  0  0  0  0  0
  141.2259  144.3320   94.6567 H   0  0  0  0  0  0  0  0  0  0  0  0
  139.8362  144.4548   95.7873 H   0  0  0  0  0  0  0  0  0  0  0  0
  144.4048  137.5571   93.7221 H   0  0  0  0  0  0  0  0  0  0  0  0
  145.2384  135.9593   91.7951 H   0  0  0  0  0  0  0  0  0  0  0  0
  145.9291  135.7288   89.4094 H   0  0  0  0  0  0  0  0  0  0  0  0
  145.9354  137.7321   87.9074 H   0  0  0  0  0  0  0  0  0  0  0  0
  1  2  2  0
  2  3  1  0
  3  4  1  0
  4  5  1  0
  5  6  1  0
  6  7  1  0
  7  8  1  0
  8  9  1  0
  9 10  1  0
 10 11  1  0
  2 12  1  0
 12 13  2  0
 13 14  1  0
 14 15  2  0
 15 16  1  0
 16 17  2  0
 17 18  1  0
 18 19  1  0
 18 20  2  0
 20 21  1  0
  9  4  1  0
 21 12  1  0
 11  6  1  0
 20 14  1  0
  3 22  1  0
  4 23  1  1
  5 24  1  0
  5 25  1  0
  7 26  1  0
  7 27  1  0
  8 28  1  0
  8 29  1  0
  9 30  1  0
 10 31  1  0
 10 32  1  0
 11 33  1  0
 11 34  1  0
 13 35  1  0
 15 36  1  0
 16 37  1  0
 17 38  1  0
M  END
>  <meeko>  (14)
{"is_sidechain": false}

>  <source_group>  (14)
CHRFAM7A at A face

>  <source_system>  (14)
CHRNA7_encenicline

>  <source_run>  (14)
hybrid_A_face_seed2207_ex32

>  <source_seed>  (14)
2207

>  <vina_pose_rank>  (14)
14

>  <vina_affinity_kcal_mol>  (14)
-6.0049999999999999

>  <vina_rmsd_to_crystal_angstrom>  (14)
6.0149999999999997

$$$$
CHRNA7_encenicline__hybrid_A_face_seed2207_ex32__pose15
     RDKit          3D

 38 41  0  0  0  0  0  0  0  0999 V2000
  144.4910  140.2580   94.6320 O   0  0  0  0  0  0  0  0  0  0  0  0
  144.0680  141.0480   93.8580 C   0  0  0  0  0  0  0  0  0  0  0  0
  143.1110  142.0460   94.2960 N   0  0  0  0  0  0  0  0  0  0  0  0
  142.6710  142.0610   95.7100 C   0  0  1  0  0  0  0  0  0  0  0  0
  142.8820  143.4650   96.3100 C   0  0  0  0  0  0  0  0  0  0  0  0
  141.6800  144.0000   96.7810 N   0  0  0  0  0  0  0  0  0  0  0  0
  141.1260  143.1700   97.7310 C   0  0  0  0  0  0  0  0  0  0  0  0
  140.8470  141.8060   97.1710 C   0  0  0  0  0  0  0  0  0  0  0  0
  141.2500  141.7380   95.7940 C   0  0  0  0  0  0  0  0  0  0  0  0
  140.5040  142.7450   95.0450 C   0  0  0  0  0  0  0  0  0  0  0  0
  140.7720  144.1510   95.7040 C   0  0  0  0  0  0  0  0  0  0  0  0
  144.5410  141.0090   92.4000 C   0  0  0  0  0  0  0  0  0  0  0  0
  143.8990  140.4020   91.3760 C   0  0  0  0  0  0  0  0  0  0  0  0
  144.4660  140.4520   90.0580 C   0  0  0  0  0  0  0  0  0  0  0  0
  143.9430  139.8940   88.9220 C   0  0  0  0  0  0  0  0  0  0  0  0
  144.6140  140.0270   87.7060 C   0  0  0  0  0  0  0  0  0  0  0  0
  145.8280  140.7330   87.6470 C   0  0  0  0  0  0  0  0  0  0  0  0
  146.3670  141.3050   88.8030 C   0  0  0  0  0  0  0  0  0  0  0  0
  147.9060  142.2010   88.7220 Cl  0  0  0  0  0  0  0  0  0  0  0  0
  145.7080  141.1760   90.0020 C   0  0  0  0  0  0  0  0  0  0  0  0
  145.9790  141.7130   91.7180 S   0  0  0  0  0  0  0  0  0  0  0  0
  142.7580  142.7070   93.6590 H   0  0  0  0  0  0  0  0  0  0  0  0
  143.2613  141.3176   96.2658 H   0  0  0  0  0  0  0  0  0  0  0  0
  143.5949  143.3948   97.1448 H   0  0  0  0  0  0  0  0  0  0  0  0
  143.2715  144.1255   95.5213 H   0  0  0  0  0  0  0  0  0  0  0  0
  141.8257  143.0743   98.5744 H   0  0  0  0  0  0  0  0  0  0  0  0
  140.1736  143.6098   98.0618 H   0  0  0  0  0  0  0  0  0  0  0  0
  141.4055  141.0555   97.7496 H   0  0  0  0  0  0  0  0  0  0  0  0
  139.7671  141.6073   97.2370 H   0  0  0  0  0  0  0  0  0  0  0  0
  141.0593  140.7339   95.3874 H   0  0  0  0  0  0  0  0  0  0  0  0
  140.8406  142.7548   93.9978 H   0  0  0  0  0  0  0  0  0  0  0  0
  139.4286  142.5146   95.0676 H   0  0  0  0  0  0  0  0  0  0  0  0
  141.2016  144.8319   94.9544 H   0  0  0  0  0  0  0  0  0  0  0  0
  139.8252  144.5686   96.0771 H   0  0  0  0  0  0  0  0  0  0  0  0
  142.9500  139.8742   91.5516 H   0  0  0  0  0  0  0  0  0  0  0  0
  142.9934  139.3407   88.9682 H   0  0  0  0  0  0  0  0  0  0  0  0
  144.1930  139.5794   86.7936 H   0  0  0  0  0  0  0  0  0  0  0  0
  146.3559  140.8358   86.6875 H   0  0  0  0  0  0  0  0  0  0  0  0
  1  2  2  0
  2  3  1  0
  3  4  1  0
  4  5  1  0
  5  6  1  0
  6  7  1  0
  7  8  1  0
  8  9  1  0
  9 10  1  0
 10 11  1  0
  2 12  1  0
 12 13  2  0
 13 14  1  0
 14 15  2  0
 15 16  1  0
 16 17  2  0
 17 18  1  0
 18 19  1  0
 18 20  2  0
 20 21  1  0
  9  4  1  0
 21 12  1  0
 11  6  1  0
 20 14  1  0
  3 22  1  0
  4 23  1  1
  5 24  1  0
  5 25  1  0
  7 26  1  0
  7 27  1  0
  8 28  1  0
  8 29  1  0
  9 30  1  0
 10 31  1  0
 10 32  1  0
 11 33  1  0
 11 34  1  0
 13 35  1  0
 15 36  1  0
 16 37  1  0
 17 38  1  0
M  END
>  <meeko>  (15)
{"is_sidechain": false}

>  <source_group>  (15)
CHRFAM7A at A face

>  <source_system>  (15)
CHRNA7_encenicline

>  <source_run>  (15)
hybrid_A_face_seed2207_ex32

>  <source_seed>  (15)
2207

>  <vina_pose_rank>  (15)
15

>  <vina_affinity_kcal_mol>  (15)
-5.9790000000000001

>  <vina_rmsd_to_crystal_angstrom>  (15)
6.5518000000000001

$$$$
CHRNA7_encenicline__hybrid_A_face_seed2207_ex32__pose16
     RDKit          3D

 38 41  0  0  0  0  0  0  0  0999 V2000
  140.0100  140.7490   85.8510 O   0  0  0  0  0  0  0  0  0  0  0  0
  140.9550  140.3880   86.4670 C   0  0  0  0  0  0  0  0  0  0  0  0
  140.7810  139.8500   87.8020 N   0  0  0  0  0  0  0  0  0  0  0  0
  139.4210  139.7630   88.3810 C   0  0  1  0  0  0  0  0  0  0  0  0
  138.7810  138.4080   88.0180 C   0  0  0  0  0  0  0  0  0  0  0  0
  138.4310  137.6910   89.1640 N   0  0  0  0  0  0  0  0  0  0  0  0
  137.5570  138.4210   89.9390 C   0  0  0  0  0  0  0  0  0  0  0  0
  138.1620  139.7250   90.3670 C   0  0  0  0  0  0  0  0  0  0  0  0
  139.4900  139.8590   89.8360 C   0  0  0  0  0  0  0  0  0  0  0  0
  140.2990  138.7490   90.3320 C   0  0  0  0  0  0  0  0  0  0  0  0
  139.5940  137.4010   89.9190 C   0  0  0  0  0  0  0  0  0  0  0  0
  142.3510  140.4900   85.8430 C   0  0  0  0  0  0  0  0  0  0  0  0
  142.6650  141.1600   84.7100 C   0  0  0  0  0  0  0  0  0  0  0  0
  144.0230  141.1670   84.2470 C   0  0  0  0  0  0  0  0  0  0  0  0
  144.5020  141.7950   83.1280 C   0  0  0  0  0  0  0  0  0  0  0  0
  145.8560  141.7100   82.8050 C   0  0  0  0  0  0  0  0  0  0  0  0
  146.7310  140.9800   83.6280 C   0  0  0  0  0  0  0  0  0  0  0  0
  146.2490  140.3370   84.7720 C   0  0  0  0  0  0  0  0  0  0  0  0
  147.3630  139.4130   85.8140 Cl  0  0  0  0  0  0  0  0  0  0  0  0
  144.9150  140.4190   85.0920 C   0  0  0  0  0  0  0  0  0  0  0  0
  143.8380  139.7900   86.4160 S   0  0  0  0  0  0  0  0  0  0  0  0
  141.5610  139.5450   88.3200 H   0  0  0  0  0  0  0  0  0  0  0  0
  138.8180  140.5889   87.9756 H   0  0  0  0  0  0  0  0  0  0  0  0
  137.8772  138.5877   87.4173 H   0  0  0  0  0  0  0  0  0  0  0  0
  139.5145  137.8180   87.4488 H   0  0  0  0  0  0  0  0  0  0  0  0
  136.6459  138.6233   89.3568 H   0  0  0  0  0  0  0  0  0  0  0  0
  137.3227  137.8360   90.8406 H   0  0  0  0  0  0  0  0  0  0  0  0
  137.5386  140.5525   89.9973 H   0  0  0  0  0  0  0  0  0  0  0  0
  138.2125  139.7515   91.4655 H   0  0  0  0  0  0  0  0  0  0  0  0
  139.9278  140.8221   90.1372 H   0  0  0  0  0  0  0  0  0  0  0  0
  141.3046  138.7941   89.8885 H   0  0  0  0  0  0  0  0  0  0  0  0
  140.3938  138.8079   91.4263 H   0  0  0  0  0  0  0  0  0  0  0  0
  140.2843  136.7966   89.3122 H   0  0  0  0  0  0  0  0  0  0  0  0
  139.3150  136.8400   90.8231 H   0  0  0  0  0  0  0  0  0  0  0  0
  141.8851  141.6951   84.1483 H   0  0  0  0  0  0  0  0  0  0  0  0
  143.8181  142.3669   82.4835 H   0  0  0  0  0  0  0  0  0  0  0  0
  146.2394  142.2145   81.9058 H   0  0  0  0  0  0  0  0  0  0  0  0
  147.7986  140.9144   83.3711 H   0  0  0  0  0  0  0  0  0  0  0  0
  1  2  2  0
  2  3  1  0
  3  4  1  0
  4  5  1  0
  5  6  1  0
  6  7  1  0
  7  8  1  0
  8  9  1  0
  9 10  1  0
 10 11  1  0
  2 12  1  0
 12 13  2  0
 13 14  1  0
 14 15  2  0
 15 16  1  0
 16 17  2  0
 17 18  1  0
 18 19  1  0
 18 20  2  0
 20 21  1  0
  9  4  1  0
 21 12  1  0
 11  6  1  0
 20 14  1  0
  3 22  1  0
  4 23  1  6
  5 24  1  0
  5 25  1  0
  7 26  1  0
  7 27  1  0
  8 28  1  0
  8 29  1  0
  9 30  1  0
 10 31  1  0
 10 32  1  0
 11 33  1  0
 11 34  1  0
 13 35  1  0
 15 36  1  0
 16 37  1  0
 17 38  1  0
M  END
>  <meeko>  (16)
{"is_sidechain": false}

>  <source_group>  (16)
CHRFAM7A at A face

>  <source_system>  (16)
CHRNA7_encenicline

>  <source_run>  (16)
hybrid_A_face_seed2207_ex32

>  <source_seed>  (16)
2207

>  <vina_pose_rank>  (16)
16

>  <vina_affinity_kcal_mol>  (16)
-5.9610000000000003

>  <vina_rmsd_to_crystal_angstrom>  (16)
6.3247999999999998

$$$$
CHRNA7_encenicline__hybrid_A_face_seed2207_ex32__pose17
     RDKit          3D

 38 41  0  0  0  0  0  0  0  0999 V2000
  141.4820  142.2710   93.2250 O   0  0  0  0  0  0  0  0  0  0  0  0
  140.4330  142.8090   93.3370 C   0  0  0  0  0  0  0  0  0  0  0  0
  139.9640  143.2080   94.6500 N   0  0  0  0  0  0  0  0  0  0  0  0
  140.8050  142.9340   95.8380 C   0  0  1  0  0  0  0  0  0  0  0  0
  140.7430  144.1260   96.8120 C   0  0  0  0  0  0  0  0  0  0  0  0
  140.2720  143.7310   98.0670 N   0  0  0  0  0  0  0  0  0  0  0  0
  141.0790  142.7460   98.5940 C   0  0  0  0  0  0  0  0  0  0  0  0
  141.1210  141.5390   97.7050 C   0  0  0  0  0  0  0  0  0  0  0  0
  140.3140  141.7490   96.5350 C   0  0  0  0  0  0  0  0  0  0  0  0
  138.9410  142.0040   96.9630 C   0  0  0  0  0  0  0  0  0  0  0  0
  138.9500  143.2360   97.9450 C   0  0  0  0  0  0  0  0  0  0  0  0
  139.5840  143.0800   92.0910 C   0  0  0  0  0  0  0  0  0  0  0  0
  138.7930  144.1600   91.8910 C   0  0  0  0  0  0  0  0  0  0  0  0
  138.0550  144.2780   90.6660 C   0  0  0  0  0  0  0  0  0  0  0  0
  137.2180  145.3030   90.3120 C   0  0  0  0  0  0  0  0  0  0  0  0
  136.5640  145.2770   89.0800 C   0  0  0  0  0  0  0  0  0  0  0  0
  136.7650  144.1990   88.2010 C   0  0  0  0  0  0  0  0  0  0  0  0
  137.6190  143.1500   88.5560 C   0  0  0  0  0  0  0  0  0  0  0  0
  137.8720  141.7870   87.4350 Cl  0  0  0  0  0  0  0  0  0  0  0  0
  138.2640  143.1740   89.7690 C   0  0  0  0  0  0  0  0  0  0  0  0
  139.4270  142.0990   90.6620 S   0  0  0  0  0  0  0  0  0  0  0  0
  139.0950  143.6570   94.7510 H   0  0  0  0  0  0  0  0  0  0  0  0
  141.8396  142.7730   95.5010 H   0  0  0  0  0  0  0  0  0  0  0  0
  141.7518  144.5497   96.9247 H   0  0  0  0  0  0  0  0  0  0  0  0
  140.0505  144.8753   96.4008 H   0  0  0  0  0  0  0  0  0  0  0  0
  142.0989  143.1420   98.7082 H   0  0  0  0  0  0  0  0  0  0  0  0
  140.6659  142.4444   99.5679 H   0  0  0  0  0  0  0  0  0  0  0  0
  142.1606  141.3506   97.3989 H   0  0  0  0  0  0  0  0  0  0  0  0
  140.7269  140.6744   98.2592 H   0  0  0  0  0  0  0  0  0  0  0  0
  140.3580  140.8696   95.8757 H   0  0  0  0  0  0  0  0  0  0  0  0
  138.3145  142.2305   96.0877 H   0  0  0  0  0  0  0  0  0  0  0  0
  138.5312  141.1180   97.4700 H   0  0  0  0  0  0  0  0  0  0  0  0
  138.2972  144.0270   97.5474 H   0  0  0  0  0  0  0  0  0  0  0  0
  138.5830  142.9210   98.9330 H   0  0  0  0  0  0  0  0  0  0  0  0
  138.7165  144.9413   92.6616 H   0  0  0  0  0  0  0  0  0  0  0  0
  137.0615  146.1472   90.9996 H   0  0  0  0  0  0  0  0  0  0  0  0
  135.8913  146.0999   88.7967 H   0  0  0  0  0  0  0  0  0  0  0  0
  136.2486  144.1803   87.2299 H   0  0  0  0  0  0  0  0  0  0  0  0
  1  2  2  0
  2  3  1  0
  3  4  1  0
  4  5  1  0
  5  6  1  0
  6  7  1  0
  7  8  1  0
  8  9  1  0
  9 10  1  0
 10 11  1  0
  2 12  1  0
 12 13  2  0
 13 14  1  0
 14 15  2  0
 15 16  1  0
 16 17  2  0
 17 18  1  0
 18 19  1  0
 18 20  2  0
 20 21  1  0
  9  4  1  0
 21 12  1  0
 11  6  1  0
 20 14  1  0
  3 22  1  0
  4 23  1  6
  5 24  1  0
  5 25  1  0
  7 26  1  0
  7 27  1  0
  8 28  1  0
  8 29  1  0
  9 30  1  0
 10 31  1  0
 10 32  1  0
 11 33  1  0
 11 34  1  0
 13 35  1  0
 15 36  1  0
 16 37  1  0
 17 38  1  0
M  END
>  <meeko>  (17)
{"is_sidechain": false}

>  <source_group>  (17)
CHRFAM7A at A face

>  <source_system>  (17)
CHRNA7_encenicline

>  <source_run>  (17)
hybrid_A_face_seed2207_ex32

>  <source_seed>  (17)
2207

>  <vina_pose_rank>  (17)
17

>  <vina_affinity_kcal_mol>  (17)
-5.8879999999999999

>  <vina_rmsd_to_crystal_angstrom>  (17)
9.7073

$$$$
CHRNA7_encenicline__hybrid_A_face_seed2207_ex32__pose18
     RDKit          3D

 38 41  0  0  0  0  0  0  0  0999 V2000
  147.1660  140.8530   91.3130 O   0  0  0  0  0  0  0  0  0  0  0  0
  147.2510  139.9480   90.5540 C   0  0  0  0  0  0  0  0  0  0  0  0
  148.0980  140.0670   89.3830 N   0  0  0  0  0  0  0  0  0  0  0  0
  148.8450  141.3240   89.1500 C   0  0  1  0  0  0  0  0  0  0  0  0
  150.3560  141.0290   89.0650 C   0  0  0  0  0  0  0  0  0  0  0  0
  150.8850  141.4440   87.8400 N   0  0  0  0  0  0  0  0  0  0  0  0
  150.6670  142.7920   87.6550 C   0  0  0  0  0  0  0  0  0  0  0  0
  149.2020  143.1170   87.6700 C   0  0  0  0  0  0  0  0  0  0  0  0
  148.4270  141.9270   87.8870 C   0  0  0  0  0  0  0  0  0  0  0  0
  148.7170  140.9850   86.8100 C   0  0  0  0  0  0  0  0  0  0  0  0
  150.2700  140.7230   86.7870 C   0  0  0  0  0  0  0  0  0  0  0  0
  146.4660  138.6590   90.8210 C   0  0  0  0  0  0  0  0  0  0  0  0
  146.9830  137.5020   91.2950 C   0  0  0  0  0  0  0  0  0  0  0  0
  146.1200  136.3740   91.4970 C   0  0  0  0  0  0  0  0  0  0  0  0
  146.4830  135.1400   91.9690 C   0  0  0  0  0  0  0  0  0  0  0  0
  145.5250  134.1360   92.1100 C   0  0  0  0  0  0  0  0  0  0  0  0
  144.1860  134.3900   91.7690 C   0  0  0  0  0  0  0  0  0  0  0  0
  143.8080  135.6470   91.2870 C   0  0  0  0  0  0  0  0  0  0  0  0
  142.1070  135.9630   90.8570 Cl  0  0  0  0  0  0  0  0  0  0  0  0
  144.7500  136.6370   91.1470 C   0  0  0  0  0  0  0  0  0  0  0  0
  144.7660  138.3670   90.5880 S   0  0  0  0  0  0  0  0  0  0  0  0
  148.1760  139.3190   88.7490 H   0  0  0  0  0  0  0  0  0  0  0  0
  148.6379  142.0105   89.9842 H   0  0  0  0  0  0  0  0  0  0  0  0
  150.8717  141.5621   89.8773 H   0  0  0  0  0  0  0  0  0  0  0  0
  150.5040  139.9430   89.1577 H   0  0  0  0  0  0  0  0  0  0  0  0
  151.1655  143.3492   88.4619 H   0  0  0  0  0  0  0  0  0  0  0  0
  151.0748  143.0772   86.6740 H   0  0  0  0  0  0  0  0  0  0  0  0
  148.9982  143.8346   88.4784 H   0  0  0  0  0  0  0  0  0  0  0  0
  148.9232  143.5521   86.6990 H   0  0  0  0  0  0  0  0  0  0  0  0
  147.3539  142.1677   87.9122 H   0  0  0  0  0  0  0  0  0  0  0  0
  148.1830  140.0400   86.9885 H   0  0  0  0  0  0  0  0  0  0  0  0
  148.3882  141.3991   85.8454 H   0  0  0  0  0  0  0  0  0  0  0  0
  150.4627  139.6478   86.9171 H   0  0  0  0  0  0  0  0  0  0  0  0
  150.6842  141.0552   85.8236 H   0  0  0  0  0  0  0  0  0  0  0  0
  148.0564  137.4269   91.5236 H   0  0  0  0  0  0  0  0  0  0  0  0
  147.5311  134.9408   92.2370 H   0  0  0  0  0  0  0  0  0  0  0  0
  145.8179  133.1454   92.4882 H   0  0  0  0  0  0  0  0  0  0  0  0
  143.4321  133.5970   91.8816 H   0  0  0  0  0  0  0  0  0  0  0  0
  1  2  2  0
  2  3  1  0
  3  4  1  0
  4  5  1  0
  5  6  1  0
  6  7  1  0
  7  8  1  0
  8  9  1  0
  9 10  1  0
 10 11  1  0
  2 12  1  0
 12 13  2  0
 13 14  1  0
 14 15  2  0
 15 16  1  0
 16 17  2  0
 17 18  1  0
 18 19  1  0
 18 20  2  0
 20 21  1  0
  9  4  1  0
 21 12  1  0
 11  6  1  0
 20 14  1  0
  3 22  1  0
  4 23  1  1
  5 24  1  0
  5 25  1  0
  7 26  1  0
  7 27  1  0
  8 28  1  0
  8 29  1  0
  9 30  1  0
 10 31  1  0
 10 32  1  0
 11 33  1  0
 11 34  1  0
 13 35  1  0
 15 36  1  0
 16 37  1  0
 17 38  1  0
M  END
>  <meeko>  (18)
{"is_sidechain": false}

>  <source_group>  (18)
CHRFAM7A at A face

>  <source_system>  (18)
CHRNA7_encenicline

>  <source_run>  (18)
hybrid_A_face_seed2207_ex32

>  <source_seed>  (18)
2207

>  <vina_pose_rank>  (18)
18

>  <vina_affinity_kcal_mol>  (18)
-5.8789999999999996

>  <vina_rmsd_to_crystal_angstrom>  (18)
7.0900999999999996

$$$$
CHRNA7_encenicline__hybrid_A_face_seed2207_ex32__pose19
     RDKit          3D

 38 41  0  0  0  0  0  0  0  0999 V2000
  147.0450  141.1380   91.4060 O   0  0  0  0  0  0  0  0  0  0  0  0
  147.5980  140.1050   91.5800 C   0  0  0  0  0  0  0  0  0  0  0  0
  149.0340  140.0810   91.7770 N   0  0  0  0  0  0  0  0  0  0  0  0
  149.7940  141.3520   91.7550 C   0  0  1  0  0  0  0  0  0  0  0  0
  149.9140  141.9180   93.1830 C   0  0  0  0  0  0  0  0  0  0  0  0
  151.2520  142.0720   93.5560 N   0  0  0  0  0  0  0  0  0  0  0  0
  151.9030  142.9050   92.6720 C   0  0  0  0  0  0  0  0  0  0  0  0
  151.8630  142.3620   91.2750 C   0  0  0  0  0  0  0  0  0  0  0  0
  151.1400  141.1210   91.2400 C   0  0  0  0  0  0  0  0  0  0  0  0
  151.8130  140.1720   92.1240 C   0  0  0  0  0  0  0  0  0  0  0  0
  151.8930  140.8080   93.5640 C   0  0  0  0  0  0  0  0  0  0  0  0
  146.7870  138.8050   91.5990 C   0  0  0  0  0  0  0  0  0  0  0  0
  147.2650  137.5780   91.9130 C   0  0  0  0  0  0  0  0  0  0  0  0
  146.3800  136.4490   91.8890 C   0  0  0  0  0  0  0  0  0  0  0  0
  146.7050  135.1500   92.1800 C   0  0  0  0  0  0  0  0  0  0  0  0
  145.7300  134.1540   92.1110 C   0  0  0  0  0  0  0  0  0  0  0  0
  144.4150  134.4830   91.7420 C   0  0  0  0  0  0  0  0  0  0  0  0
  144.0760  135.8060   91.4450 C   0  0  0  0  0  0  0  0  0  0  0  0
  142.4050  136.2180   90.9800 Cl  0  0  0  0  0  0  0  0  0  0  0  0
  145.0350  136.7890   91.5120 C   0  0  0  0  0  0  0  0  0  0  0  0
  145.0990  138.5850   91.2330 S   0  0  0  0  0  0  0  0  0  0  0  0
  149.5010  139.2280   91.9250 H   0  0  0  0  0  0  0  0  0  0  0  0
  149.2598  142.0642   91.1089 H   0  0  0  0  0  0  0  0  0  0  0  0
  149.4154  142.8977   93.2235 H   0  0  0  0  0  0  0  0  0  0  0  0
  149.4382  141.2109   93.8785 H   0  0  0  0  0  0  0  0  0  0  0  0
  151.4167  143.8916   92.6862 H   0  0  0  0  0  0  0  0  0  0  0  0
  152.9555  142.9830   92.9822 H   0  0  0  0  0  0  0  0  0  0  0  0
  151.3654  143.0900   90.6174 H   0  0  0  0  0  0  0  0  0  0  0  0
  152.8929  142.1845   90.9318 H   0  0  0  0  0  0  0  0  0  0  0  0
  151.0964  140.7312   90.2123 H   0  0  0  0  0  0  0  0  0  0  0  0
  151.2430  139.2321   92.1637 H   0  0  0  0  0  0  0  0  0  0  0  0
  152.8241  139.9558   91.7485 H   0  0  0  0  0  0  0  0  0  0  0  0
  151.3915  140.1466   94.2858 H   0  0  0  0  0  0  0  0  0  0  0  0
  152.9471  140.9321   93.8531 H   0  0  0  0  0  0  0  0  0  0  0  0
  148.3230  137.4477   92.1843 H   0  0  0  0  0  0  0  0  0  0  0  0
  147.7348  134.8922   92.4681 H   0  0  0  0  0  0  0  0  0  0  0  0
  145.9910  133.1115   92.3455 H   0  0  0  0  0  0  0  0  0  0  0  0
  143.6487  133.6958   91.6866 H   0  0  0  0  0  0  0  0  0  0  0  0
  1  2  2  0
  2  3  1  0
  3  4  1  0
  4  5  1  0
  5  6  1  0
  6  7  1  0
  7  8  1  0
  8  9  1  0
  9 10  1  0
 10 11  1  0
  2 12  1  0
 12 13  2  0
 13 14  1  0
 14 15  2  0
 15 16  1  0
 16 17  2  0
 17 18  1  0
 18 19  1  0
 18 20  2  0
 20 21  1  0
  9  4  1  0
 21 12  1  0
 11  6  1  0
 20 14  1  0
  3 22  1  0
  4 23  1  6
  5 24  1  0
  5 25  1  0
  7 26  1  0
  7 27  1  0
  8 28  1  0
  8 29  1  0
  9 30  1  0
 10 31  1  0
 10 32  1  0
 11 33  1  0
 11 34  1  0
 13 35  1  0
 15 36  1  0
 16 37  1  0
 17 38  1  0
M  END
>  <meeko>  (19)
{"is_sidechain": false}

>  <source_group>  (19)
CHRFAM7A at A face

>  <source_system>  (19)
CHRNA7_encenicline

>  <source_run>  (19)
hybrid_A_face_seed2207_ex32

>  <source_seed>  (19)
2207

>  <vina_pose_rank>  (19)
19

>  <vina_affinity_kcal_mol>  (19)
-5.7729999999999997

>  <vina_rmsd_to_crystal_angstrom>  (19)
8.2705000000000002

$$$$
CHRNA7_encenicline__hybrid_A_face_seed2207_ex32__pose20
     RDKit          3D

 38 41  0  0  0  0  0  0  0  0999 V2000
  149.3820  135.6030   92.2110 O   0  0  0  0  0  0  0  0  0  0  0  0
  148.9330  136.6410   91.8590 C   0  0  0  0  0  0  0  0  0  0  0  0
  149.8190  137.7600   91.6040 N   0  0  0  0  0  0  0  0  0  0  0  0
  151.2780  137.5910   91.7910 C   0  0  1  0  0  0  0  0  0  0  0  0
  151.9380  137.2090   90.4510 C   0  0  0  0  0  0  0  0  0  0  0  0
  152.9160  138.1380   90.0860 N   0  0  0  0  0  0  0  0  0  0  0  0
  153.8800  138.2280   91.0660 C   0  0  0  0  0  0  0  0  0  0  0  0
  153.2900  138.6570   92.3770 C   0  0  0  0  0  0  0  0  0  0  0  0
  151.8720  138.8430   92.2510 C   0  0  0  0  0  0  0  0  0  0  0  0
  151.6290  139.8670   91.2380 C   0  0  0  0  0  0  0  0  0  0  0  0
  152.3200  139.4090   89.8970 C   0  0  0  0  0  0  0  0  0  0  0  0
  147.4180  136.7880   91.6740 C   0  0  0  0  0  0  0  0  0  0  0  0
  146.5360  135.7710   91.5360 C   0  0  0  0  0  0  0  0  0  0  0  0
  145.1410  136.0650   91.3730 C   0  0  0  0  0  0  0  0  0  0  0  0
  144.1260  135.1570   91.2230 C   0  0  0  0  0  0  0  0  0  0  0  0
  142.8110  135.5980   91.0720 C   0  0  0  0  0  0  0  0  0  0  0  0
  142.5270  136.9740   91.0720 C   0  0  0  0  0  0  0  0  0  0  0  0
  143.5570  137.9060   91.2250 C   0  0  0  0  0  0  0  0  0  0  0  0
  143.1900  139.6510   91.2260 Cl  0  0  0  0  0  0  0  0  0  0  0  0
  144.8540  137.4750   91.3740 C   0  0  0  0  0  0  0  0  0  0  0  0
  146.4820  138.2530   91.5970 S   0  0  0  0  0  0  0  0  0  0  0  0
  149.4530  138.6250   91.3100 H   0  0  0  0  0  0  0  0  0  0  0  0
  151.4428  136.7985   92.5359 H   0  0  0  0  0  0  0  0  0  0  0  0
  152.4042  136.2177   90.5505 H   0  0  0  0  0  0  0  0  0  0  0  0
  151.1618  137.1963   89.6717 H   0  0  0  0  0  0  0  0  0  0  0  0
  154.3549  137.2438   91.1923 H   0  0  0  0  0  0  0  0  0  0  0  0
  154.6192  138.9814   90.7561 H   0  0  0  0  0  0  0  0  0  0  0  0
  153.4882  137.8839   93.1339 H   0  0  0  0  0  0  0  0  0  0  0  0
  153.7491  139.6095   92.6802 H   0  0  0  0  0  0  0  0  0  0  0  0
  151.4375  139.1428   93.2161 H   0  0  0  0  0  0  0  0  0  0  0  0
  150.5469  139.9830   91.0783 H   0  0  0  0  0  0  0  0  0  0  0  0
  152.0419  140.8320   91.5673 H   0  0  0  0  0  0  0  0  0  0  0  0
  151.5661  139.3459   89.0984 H   0  0  0  0  0  0  0  0  0  0  0  0
  153.0925  140.1389   89.6134 H   0  0  0  0  0  0  0  0  0  0  0  0
  146.8854  134.7280   91.5487 H   0  0  0  0  0  0  0  0  0  0  0  0
  144.3480  134.0796   91.2216 H   0  0  0  0  0  0  0  0  0  0  0  0
  141.9965  134.8683   90.9529 H   0  0  0  0  0  0  0  0  0  0  0  0
  141.4896  137.3191   90.9511 H   0  0  0  0  0  0  0  0  0  0  0  0
  1  2  2  0
  2  3  1  0
  3  4  1  0
  4  5  1  0
  5  6  1  0
  6  7  1  0
  7  8  1  0
  8  9  1  0
  9 10  1  0
 10 11  1  0
  2 12  1  0
 12 13  2  0
 13 14  1  0
 14 15  2  0
 15 16  1  0
 16 17  2  0
 17 18  1  0
 18 19  1  0
 18 20  2  0
 20 21  1  0
  9  4  1  0
 21 12  1  0
 11  6  1  0
 20 14  1  0
  3 22  1  0
  4 23  1  1
  5 24  1  0
  5 25  1  0
  7 26  1  0
  7 27  1  0
  8 28  1  0
  8 29  1  0
  9 30  1  0
 10 31  1  0
 10 32  1  0
 11 33  1  0
 11 34  1  0
 13 35  1  0
 15 36  1  0
 16 37  1  0
 17 38  1  0
M  END
>  <meeko>  (20)
{"is_sidechain": false}

>  <source_group>  (20)
CHRFAM7A at A face

>  <source_system>  (20)
CHRNA7_encenicline

>  <source_run>  (20)
hybrid_A_face_seed2207_ex32

>  <source_seed>  (20)
2207

>  <vina_pose_rank>  (20)
20

>  <vina_affinity_kcal_mol>  (20)
-5.7300000000000004

>  <vina_rmsd_to_crystal_angstrom>  (20)
9.1303000000000001

$$$$
