FYN_saracatinib__vina_seed7723_ex64__pose01
     RDKit          3D

 72 77  0  0  0  0  0  0  0  0999 V2000
   -9.1910   13.7410   -0.2170 C   0  0  0  0  0  0  0  0  0  0  0  0
   -8.4750   13.8350   -1.4770 N   0  0  0  0  0  0  0  0  0  0  0  0
   -9.3080   13.3540   -2.5650 C   0  0  0  0  0  0  0  0  0  0  0  0
   -8.6080   13.4970   -3.9250 C   0  0  0  0  0  0  0  0  0  0  0  0
   -8.1980   14.8710   -4.1970 N   0  0  0  0  0  0  0  0  0  0  0  0
   -7.4840   14.9110   -5.4680 C   0  0  0  0  0  0  0  0  0  0  0  0
   -7.9620   15.9620   -6.4850 C   0  0  0  0  0  0  0  0  0  0  0  0
   -9.3300   16.2630   -6.3440 O   0  0  0  0  0  0  0  0  0  0  0  0
  -10.1130   16.0160   -7.4450 C   0  0  0  0  0  0  0  0  0  0  0  0
  -11.2320   16.7030   -7.7040 C   0  0  0  0  0  0  0  0  0  0  0  0
  -11.9840   16.4370   -8.7810 C   0  0  0  0  0  0  0  0  0  0  0  0
  -11.6690   15.4560   -9.6730 C   0  0  0  0  0  0  0  0  0  0  0  0
  -10.5380   14.7390   -9.4260 C   0  0  0  0  0  0  0  0  0  0  0  0
  -10.1140   13.7340  -10.2760 O   0  0  0  0  0  0  0  0  0  0  0  0
  -10.0300   12.3860   -9.8820 C   0  0  0  0  0  0  0  0  0  0  0  0
  -11.0550   11.9970   -8.8160 C   0  0  0  0  0  0  0  0  0  0  0  0
  -11.1700   10.4820   -8.6900 C   0  0  0  0  0  0  0  0  0  0  0  0
  -11.4950    9.9000   -9.9290 O   0  0  0  0  0  0  0  0  0  0  0  0
  -10.4470   10.0810  -10.8430 C   0  0  0  0  0  0  0  0  0  0  0  0
  -10.2880   11.5650  -11.1570 C   0  0  0  0  0  0  0  0  0  0  0  0
   -9.8080   15.0490   -8.3300 C   0  0  0  0  0  0  0  0  0  0  0  0
  -12.5200   15.2960  -10.7280 C   0  0  0  0  0  0  0  0  0  0  0  0
  -12.5550   14.4970  -11.7290 N   0  0  0  0  0  0  0  0  0  0  0  0
  -13.4080   14.1020  -12.5980 C   0  0  0  0  0  0  0  0  0  0  0  0
  -14.1260   12.9640  -12.3780 C   0  0  0  0  0  0  0  0  0  0  0  0
  -13.9690   11.9740  -10.9550 Cl  0  0  0  0  0  0  0  0  0  0  0  0
  -15.0410   12.5300  -13.2670 C   0  0  0  0  0  0  0  0  0  0  0  0
  -15.2790   13.1890  -14.4090 C   0  0  0  0  0  0  0  0  0  0  0  0
  -14.5780   14.3020  -14.6390 C   0  0  0  0  0  0  0  0  0  0  0  0
  -13.6680   14.7420  -13.7610 C   0  0  0  0  0  0  0  0  0  0  0  0
  -13.1520   15.7790  -14.1840 O   0  0  0  0  0  0  0  0  0  0  0  0
  -13.6830   16.0570  -15.4790 C   0  0  0  0  0  0  0  0  0  0  0  0
  -14.6570   15.0310  -15.6270 O   0  0  0  0  0  0  0  0  0  0  0  0
  -13.5380   16.0640  -10.7880 N   0  0  0  0  0  0  0  0  0  0  0  0
  -13.7410   16.9420   -9.9050 C   0  0  0  0  0  0  0  0  0  0  0  0
  -13.0140   17.1660   -8.9040 N   0  0  0  0  0  0  0  0  0  0  0  0
   -7.3570   15.3200   -3.0970 C   0  0  0  0  0  0  0  0  0  0  0  0
   -8.0770   15.2070   -1.7400 C   0  0  0  0  0  0  0  0  0  0  0  0
   -8.4796   13.8344    0.6168 H   0  0  0  0  0  0  0  0  0  0  0  0
   -9.9348   14.5492   -0.1567 H   0  0  0  0  0  0  0  0  0  0  0  0
   -9.7009   12.7682   -0.1567 H   0  0  0  0  0  0  0  0  0  0  0  0
   -9.5398   12.2924   -2.3936 H   0  0  0  0  0  0  0  0  0  0  0  0
  -10.2256   13.9602   -2.5871 H   0  0  0  0  0  0  0  0  0  0  0  0
   -7.7157   12.8538   -3.9326 H   0  0  0  0  0  0  0  0  0  0  0  0
   -9.3250   13.2000   -4.7046 H   0  0  0  0  0  0  0  0  0  0  0  0
   -6.4245   15.1119   -5.2511 H   0  0  0  0  0  0  0  0  0  0  0  0
   -7.6734   13.9366   -5.9419 H   0  0  0  0  0  0  0  0  0  0  0  0
   -7.3806   16.8844   -6.3392 H   0  0  0  0  0  0  0  0  0  0  0  0
   -7.8126   15.5458   -7.4922 H   0  0  0  0  0  0  0  0  0  0  0  0
  -11.5416   17.5044   -7.0171 H   0  0  0  0  0  0  0  0  0  0  0  0
   -9.0447   12.1994   -9.4300 H   0  0  0  0  0  0  0  0  0  0  0  0
  -10.7423   12.4150   -7.8478 H   0  0  0  0  0  0  0  0  0  0  0  0
  -12.0356   12.3977   -9.1124 H   0  0  0  0  0  0  0  0  0  0  0  0
  -10.2091   10.0753   -8.3417 H   0  0  0  0  0  0  0  0  0  0  0  0
  -11.9687   10.2480   -7.9707 H   0  0  0  0  0  0  0  0  0  0  0  0
   -9.5124    9.6973  -10.4080 H   0  0  0  0  0  0  0  0  0  0  0  0
  -10.6747    9.5352  -11.7705 H   0  0  0  0  0  0  0  0  0  0  0  0
   -9.4393   11.6961  -11.8445 H   0  0  0  0  0  0  0  0  0  0  0  0
  -11.2217   11.9230  -11.6152 H   0  0  0  0  0  0  0  0  0  0  0  0
   -8.8937   14.4651   -8.1480 H   0  0  0  0  0  0  0  0  0  0  0  0
  -11.9234   16.0080  -11.3172 H   0  0  0  0  0  0  0  0  0  0  0  0
  -11.6260   14.0270  -11.8940 H   0  0  0  0  0  0  0  0  0  0  0  0
  -15.6065   11.6119  -13.0497 H   0  0  0  0  0  0  0  0  0  0  0  0
  -16.0251   12.8262  -15.1313 H   0  0  0  0  0  0  0  0  0  0  0  0
  -14.1449   17.0546  -15.5156 H   0  0  0  0  0  0  0  0  0  0  0  0
  -12.9249   16.0665  -16.2760 H   0  0  0  0  0  0  0  0  0  0  0  0
  -14.6369   17.5695  -10.0217 H   0  0  0  0  0  0  0  0  0  0  0  0
  -13.2320   17.8700   -8.2500 H   0  0  0  0  0  0  0  0  0  0  0  0
   -6.4475   14.7019   -3.0695 H   0  0  0  0  0  0  0  0  0  0  0  0
   -7.1120   16.3790   -3.2656 H   0  0  0  0  0  0  0  0  0  0  0  0
   -7.3980   15.5441   -0.9429 H   0  0  0  0  0  0  0  0  0  0  0  0
   -8.9793   15.8355   -1.7675 H   0  0  0  0  0  0  0  0  0  0  0  0
  1  2  1  0
  2  3  1  0
  3  4  1  0
  4  5  1  0
  5  6  1  0
  6  7  1  0
  7  8  1  0
  8  9  1  0
  9 10  2  0
 10 11  1  0
 11 12  2  0
 12 13  1  0
 13 14  1  0
 14 15  1  0
 15 16  1  0
 16 17  1  0
 17 18  1  0
 18 19  1  0
 19 20  1  0
 13 21  2  0
 12 22  1  0
 22 23  1  0
 23 24  1  0
 24 25  2  0
 25 26  1  0
 25 27  1  0
 27 28  2  0
 28 29  1  0
 29 30  2  0
 30 31  1  0
 31 32  1  0
 32 33  1  0
 22 34  1  0
 34 35  2  0
 35 36  1  0
  5 37  1  0
 37 38  1  0
 38  2  1  0
 21  9  1  0
 30 24  1  0
 36 11  1  0
 20 15  1  0
 33 29  1  0
  1 39  1  0
  1 40  1  0
  1 41  1  0
  3 42  1  0
  3 43  1  0
  4 44  1  0
  4 45  1  0
  6 46  1  0
  6 47  1  0
  7 48  1  0
  7 49  1  0
 10 50  1  0
 15 51  1  0
 16 52  1  0
 16 53  1  0
 17 54  1  0
 17 55  1  0
 19 56  1  0
 19 57  1  0
 20 58  1  0
 20 59  1  0
 21 60  1  0
 22 61  1  0
 23 62  1  0
 27 63  1  0
 28 64  1  0
 32 65  1  0
 32 66  1  0
 35 67  1  0
 36 68  1  0
 37 69  1  0
 37 70  1  0
 38 71  1  0
 38 72  1  0
M  END
>  <meeko>  (1)
{"is_sidechain": false}

>  <source_group>  (1)
FYN canonical

>  <source_system>  (1)
FYN_saracatinib

>  <source_run>  (1)
vina_seed7723_ex64

>  <source_seed>  (1)
7723

>  <vina_pose_rank>  (1)
1

>  <vina_affinity_kcal_mol>  (1)
-9.2029999999999994

>  <vina_rmsd_to_crystal_angstrom>  (1)
1.8878999999999999

$$$$
FYN_saracatinib__vina_seed7723_ex64__pose02
     RDKit          3D

 72 77  0  0  0  0  0  0  0  0999 V2000
   -9.1690   13.6680   -0.2830 C   0  0  0  0  0  0  0  0  0  0  0  0
   -8.4280   13.9280   -1.5060 N   0  0  0  0  0  0  0  0  0  0  0  0
   -9.2000   13.5010   -2.6600 C   0  0  0  0  0  0  0  0  0  0  0  0
   -8.4770   13.8180   -3.9770 C   0  0  0  0  0  0  0  0  0  0  0  0
   -8.1520   15.2360   -4.1050 N   0  0  0  0  0  0  0  0  0  0  0  0
   -7.4100   15.4430   -5.3440 C   0  0  0  0  0  0  0  0  0  0  0  0
   -8.0840   16.3360   -6.4010 C   0  0  0  0  0  0  0  0  0  0  0  0
   -9.4830   16.3780   -6.2550 O   0  0  0  0  0  0  0  0  0  0  0  0
  -10.2110   16.1160   -7.3900 C   0  0  0  0  0  0  0  0  0  0  0  0
  -11.3290   16.7820   -7.7000 C   0  0  0  0  0  0  0  0  0  0  0  0
  -12.0260   16.5010   -8.8110 C   0  0  0  0  0  0  0  0  0  0  0  0
  -11.6530   15.5270   -9.6860 C   0  0  0  0  0  0  0  0  0  0  0  0
  -10.5210   14.8310   -9.3870 C   0  0  0  0  0  0  0  0  0  0  0  0
  -10.0400   13.8330  -10.2140 O   0  0  0  0  0  0  0  0  0  0  0  0
   -9.8870   12.4990   -9.7940 C   0  0  0  0  0  0  0  0  0  0  0  0
  -10.9690   12.0400   -8.8160 C   0  0  0  0  0  0  0  0  0  0  0  0
  -10.9770   10.5210   -8.6770 C   0  0  0  0  0  0  0  0  0  0  0  0
  -11.1430    9.9040   -9.9310 O   0  0  0  0  0  0  0  0  0  0  0  0
  -10.0350   10.1610  -10.7510 C   0  0  0  0  0  0  0  0  0  0  0  0
   -9.9650   11.6500  -11.0730 C   0  0  0  0  0  0  0  0  0  0  0  0
   -9.8480   15.1550   -8.2590 C   0  0  0  0  0  0  0  0  0  0  0  0
  -12.4520   15.3500  -10.7780 C   0  0  0  0  0  0  0  0  0  0  0  0
  -12.4260   14.5490  -11.7790 N   0  0  0  0  0  0  0  0  0  0  0  0
  -13.2560   13.8410  -12.4480 C   0  0  0  0  0  0  0  0  0  0  0  0
  -13.6680   14.2570  -13.6790 C   0  0  0  0  0  0  0  0  0  0  0  0
  -13.1320   15.7290  -14.4380 Cl  0  0  0  0  0  0  0  0  0  0  0  0
  -14.5300   13.5270  -14.4140 C   0  0  0  0  0  0  0  0  0  0  0  0
  -15.0270   12.3660  -13.9660 C   0  0  0  0  0  0  0  0  0  0  0  0
  -14.6350   11.9500  -12.7590 C   0  0  0  0  0  0  0  0  0  0  0  0
  -13.7770   12.6680  -12.0220 C   0  0  0  0  0  0  0  0  0  0  0  0
  -13.5640   12.0900  -10.9540 O   0  0  0  0  0  0  0  0  0  0  0  0
  -14.3740   10.9170  -10.9010 C   0  0  0  0  0  0  0  0  0  0  0  0
  -14.9860   10.9190  -12.1860 O   0  0  0  0  0  0  0  0  0  0  0  0
  -13.4790   16.0990  -10.8860 N   0  0  0  0  0  0  0  0  0  0  0  0
  -13.7390   16.9740  -10.0140 C   0  0  0  0  0  0  0  0  0  0  0  0
  -13.0620   17.2120   -8.9810 N   0  0  0  0  0  0  0  0  0  0  0  0
   -7.3710   15.6300   -2.9420 C   0  0  0  0  0  0  0  0  0  0  0  0
   -8.1160   15.3410   -1.6250 C   0  0  0  0  0  0  0  0  0  0  0  0
   -8.5325   13.8913    0.5859 H   0  0  0  0  0  0  0  0  0  0  0  0
  -10.0650   14.3054   -0.2546 H   0  0  0  0  0  0  0  0  0  0  0  0
   -9.4703   12.6105   -0.2546 H   0  0  0  0  0  0  0  0  0  0  0  0
   -9.3649   12.4153   -2.5964 H   0  0  0  0  0  0  0  0  0  0  0  0
  -10.1553   14.0463   -2.6538 H   0  0  0  0  0  0  0  0  0  0  0  0
   -7.5441   13.2365   -4.0169 H   0  0  0  0  0  0  0  0  0  0  0  0
   -9.1525   13.5523   -4.8035 H   0  0  0  0  0  0  0  0  0  0  0  0
   -6.4446   15.9017   -5.0839 H   0  0  0  0  0  0  0  0  0  0  0  0
   -7.3299   14.4487   -5.8077 H   0  0  0  0  0  0  0  0  0  0  0  0
   -7.6880   17.3577   -6.3046 H   0  0  0  0  0  0  0  0  0  0  0  0
   -7.8628   15.9095   -7.3905 H   0  0  0  0  0  0  0  0  0  0  0  0
  -11.6846   17.5777   -7.0289 H   0  0  0  0  0  0  0  0  0  0  0  0
   -8.9342   12.3939   -9.2545 H   0  0  0  0  0  0  0  0  0  0  0  0
  -10.7765   12.4896   -7.8307 H   0  0  0  0  0  0  0  0  0  0  0  0
  -11.9476   12.3599   -9.2032 H   0  0  0  0  0  0  0  0  0  0  0  0
  -10.0228   10.1942   -8.2381 H   0  0  0  0  0  0  0  0  0  0  0  0
  -11.8168   10.2313   -8.0282 H   0  0  0  0  0  0  0  0  0  0  0  0
   -9.1159    9.8567  -10.2289 H   0  0  0  0  0  0  0  0  0  0  0  0
  -10.1357    9.5914  -11.6866 H   0  0  0  0  0  0  0  0  0  0  0  0
   -9.0711   11.8419  -11.6847 H   0  0  0  0  0  0  0  0  0  0  0  0
  -10.8790   11.9290  -11.6177 H   0  0  0  0  0  0  0  0  0  0  0  0
   -8.9322   14.5884   -8.0347 H   0  0  0  0  0  0  0  0  0  0  0  0
  -11.8431   16.0729  -11.3407 H   0  0  0  0  0  0  0  0  0  0  0  0
  -11.4540   14.4350  -12.1700 H   0  0  0  0  0  0  0  0  0  0  0  0
  -14.8330   13.8932  -15.4060 H   0  0  0  0  0  0  0  0  0  0  0  0
  -15.7323   11.7769  -14.5705 H   0  0  0  0  0  0  0  0  0  0  0  0
  -13.7618   10.0154  -10.7517 H   0  0  0  0  0  0  0  0  0  0  0  0
  -15.0929   10.9128  -10.0684 H   0  0  0  0  0  0  0  0  0  0  0  0
  -14.6404   17.5843  -10.1721 H   0  0  0  0  0  0  0  0  0  0  0  0
  -13.3230   17.9120   -8.3390 H   0  0  0  0  0  0  0  0  0  0  0  0
   -6.4232   15.0717   -2.9443 H   0  0  0  0  0  0  0  0  0  0  0  0
   -7.1929   16.7138   -3.0022 H   0  0  0  0  0  0  0  0  0  0  0  0
   -7.4814   15.6423   -0.7786 H   0  0  0  0  0  0  0  0  0  0  0  0
   -9.0571   15.9104   -1.6211 H   0  0  0  0  0  0  0  0  0  0  0  0
  1  2  1  0
  2  3  1  0
  3  4  1  0
  4  5  1  0
  5  6  1  0
  6  7  1  0
  7  8  1  0
  8  9  1  0
  9 10  2  0
 10 11  1  0
 11 12  2  0
 12 13  1  0
 13 14  1  0
 14 15  1  0
 15 16  1  0
 16 17  1  0
 17 18  1  0
 18 19  1  0
 19 20  1  0
 13 21  2  0
 12 22  1  0
 22 23  1  0
 23 24  1  0
 24 25  2  0
 25 26  1  0
 25 27  1  0
 27 28  2  0
 28 29  1  0
 29 30  2  0
 30 31  1  0
 31 32  1  0
 32 33  1  0
 22 34  1  0
 34 35  2  0
 35 36  1  0
  5 37  1  0
 37 38  1  0
 38  2  1  0
 21  9  1  0
 30 24  1  0
 36 11  1  0
 20 15  1  0
 33 29  1  0
  1 39  1  0
  1 40  1  0
  1 41  1  0
  3 42  1  0
  3 43  1  0
  4 44  1  0
  4 45  1  0
  6 46  1  0
  6 47  1  0
  7 48  1  0
  7 49  1  0
 10 50  1  0
 15 51  1  0
 16 52  1  0
 16 53  1  0
 17 54  1  0
 17 55  1  0
 19 56  1  0
 19 57  1  0
 20 58  1  0
 20 59  1  0
 21 60  1  0
 22 61  1  0
 23 62  1  0
 27 63  1  0
 28 64  1  0
 32 65  1  0
 32 66  1  0
 35 67  1  0
 36 68  1  0
 37 69  1  0
 37 70  1  0
 38 71  1  0
 38 72  1  0
M  END
>  <meeko>  (2)
{"is_sidechain": false}

>  <source_group>  (2)
FYN canonical

>  <source_system>  (2)
FYN_saracatinib

>  <source_run>  (2)
vina_seed7723_ex64

>  <source_seed>  (2)
7723

>  <vina_pose_rank>  (2)
2

>  <vina_affinity_kcal_mol>  (2)
-9.0850000000000009

>  <vina_rmsd_to_crystal_angstrom>  (2)
2.6656

$$$$
FYN_saracatinib__vina_seed7723_ex64__pose03
     RDKit          3D

 72 77  0  0  0  0  0  0  0  0999 V2000
   -8.5720   15.0340    0.6820 C   0  0  0  0  0  0  0  0  0  0  0  0
   -8.1730   15.6950   -0.5480 N   0  0  0  0  0  0  0  0  0  0  0  0
   -8.3300   14.7940   -1.6760 C   0  0  0  0  0  0  0  0  0  0  0  0
   -7.9780   15.4780   -3.0050 C   0  0  0  0  0  0  0  0  0  0  0  0
   -8.7640   16.6870   -3.2330 N   0  0  0  0  0  0  0  0  0  0  0  0
   -8.3240   17.3120   -4.4760 C   0  0  0  0  0  0  0  0  0  0  0  0
   -9.2800   17.1900   -5.6750 C   0  0  0  0  0  0  0  0  0  0  0  0
   -9.1890   15.9380   -6.3100 O   0  0  0  0  0  0  0  0  0  0  0  0
   -9.9850   15.7680   -7.4160 C   0  0  0  0  0  0  0  0  0  0  0  0
  -11.0610   16.5270   -7.6540 C   0  0  0  0  0  0  0  0  0  0  0  0
  -11.8280   16.3350   -8.7380 C   0  0  0  0  0  0  0  0  0  0  0  0
  -11.5700   15.3640   -9.6580 C   0  0  0  0  0  0  0  0  0  0  0  0
  -10.4830   14.5750   -9.4320 C   0  0  0  0  0  0  0  0  0  0  0  0
  -10.1190   13.5710  -10.3100 O   0  0  0  0  0  0  0  0  0  0  0  0
  -10.0340   12.2180   -9.9320 C   0  0  0  0  0  0  0  0  0  0  0  0
  -11.0570   11.8170   -8.8690 C   0  0  0  0  0  0  0  0  0  0  0  0
  -11.1710   10.3000   -8.7600 C   0  0  0  0  0  0  0  0  0  0  0  0
  -11.4950    9.7310  -10.0050 O   0  0  0  0  0  0  0  0  0  0  0  0
  -10.4480    9.9240  -10.9170 C   0  0  0  0  0  0  0  0  0  0  0  0
  -10.2910   11.4110  -11.2150 C   0  0  0  0  0  0  0  0  0  0  0  0
   -9.7370   14.8100   -8.3290 C   0  0  0  0  0  0  0  0  0  0  0  0
  -12.4290   15.2830  -10.7150 C   0  0  0  0  0  0  0  0  0  0  0  0
  -12.5110   14.5160  -11.7380 N   0  0  0  0  0  0  0  0  0  0  0  0
  -13.4040   14.1460  -12.5780 C   0  0  0  0  0  0  0  0  0  0  0  0
  -14.1360   13.0210  -12.3400 C   0  0  0  0  0  0  0  0  0  0  0  0
  -13.9460   12.0150  -10.9320 Cl  0  0  0  0  0  0  0  0  0  0  0  0
  -15.0930   12.6140  -13.1970 C   0  0  0  0  0  0  0  0  0  0  0  0
  -15.3600   13.2880  -14.3240 C   0  0  0  0  0  0  0  0  0  0  0  0
  -14.6450   14.3890  -14.5710 C   0  0  0  0  0  0  0  0  0  0  0  0
  -13.6950   14.8020  -13.7240 C   0  0  0  0  0  0  0  0  0  0  0  0
  -13.1730   15.8320  -14.1580 O   0  0  0  0  0  0  0  0  0  0  0  0
  -13.7470   16.1330  -15.4290 C   0  0  0  0  0  0  0  0  0  0  0  0
  -14.7470   15.1280  -15.5490 O   0  0  0  0  0  0  0  0  0  0  0  0
  -13.4000   16.1110  -10.7520 N   0  0  0  0  0  0  0  0  0  0  0  0
  -13.5520   16.9750   -9.8450 C   0  0  0  0  0  0  0  0  0  0  0  0
  -12.8120   17.1270   -8.8380 N   0  0  0  0  0  0  0  0  0  0  0  0
   -8.5770   17.5730   -2.0940 C   0  0  0  0  0  0  0  0  0  0  0  0
   -8.9650   16.8920   -0.7670 C   0  0  0  0  0  0  0  0  0  0  0  0
   -8.2188   15.6191    1.5439 H   0  0  0  0  0  0  0  0  0  0  0  0
   -9.6686   14.9553    0.7169 H   0  0  0  0  0  0  0  0  0  0  0  0
   -8.1308   14.0270    0.7169 H   0  0  0  0  0  0  0  0  0  0  0  0
   -7.6670   13.9277   -1.5348 H   0  0  0  0  0  0  0  0  0  0  0  0
   -9.3839   14.4820   -1.7205 H   0  0  0  0  0  0  0  0  0  0  0  0
   -6.9115   15.7470   -2.9925 H   0  0  0  0  0  0  0  0  0  0  0  0
   -8.2055   14.7715   -3.8168 H   0  0  0  0  0  0  0  0  0  0  0  0
   -8.1709   18.3829   -4.2769 H   0  0  0  0  0  0  0  0  0  0  0  0
   -7.4130   16.7704   -4.7705 H   0  0  0  0  0  0  0  0  0  0  0  0
  -10.3114   17.3315   -5.3199 H   0  0  0  0  0  0  0  0  0  0  0  0
   -8.9964   17.9589   -6.4088 H   0  0  0  0  0  0  0  0  0  0  0  0
  -11.3226   17.3263   -6.9450 H   0  0  0  0  0  0  0  0  0  0  0  0
   -9.0480   12.0265   -9.4835 H   0  0  0  0  0  0  0  0  0  0  0  0
  -10.7429   12.2243   -7.8966 H   0  0  0  0  0  0  0  0  0  0  0  0
  -12.0382   12.2208   -9.1591 H   0  0  0  0  0  0  0  0  0  0  0  0
  -10.2099    9.8903   -8.4158 H   0  0  0  0  0  0  0  0  0  0  0  0
  -11.9701   10.0578   -8.0439 H   0  0  0  0  0  0  0  0  0  0  0  0
   -9.5126    9.5370  -10.4866 H   0  0  0  0  0  0  0  0  0  0  0  0
  -10.6757    9.3883  -11.8504 H   0  0  0  0  0  0  0  0  0  0  0  0
   -9.4426   11.5505  -11.9011 H   0  0  0  0  0  0  0  0  0  0  0  0
  -11.2252   11.7728  -11.6693 H   0  0  0  0  0  0  0  0  0  0  0  0
   -8.8588   14.1683   -8.1648 H   0  0  0  0  0  0  0  0  0  0  0  0
  -11.7926   15.9756  -11.2853 H   0  0  0  0  0  0  0  0  0  0  0  0
  -11.5900   14.0540  -11.9620 H   0  0  0  0  0  0  0  0  0  0  0  0
  -15.6693   11.7060  -12.9657 H   0  0  0  0  0  0  0  0  0  0  0  0
  -16.1399   12.9469  -15.0207 H   0  0  0  0  0  0  0  0  0  0  0  0
  -14.1895   17.1400  -15.4390 H   0  0  0  0  0  0  0  0  0  0  0  0
  -13.0197   16.1349  -16.2542 H   0  0  0  0  0  0  0  0  0  0  0  0
  -14.4091   17.6575   -9.9432 H   0  0  0  0  0  0  0  0  0  0  0  0
  -12.9890   17.8240   -8.1650 H   0  0  0  0  0  0  0  0  0  0  0  0
   -7.5192   17.8709   -2.0450 H   0  0  0  0  0  0  0  0  0  0  0  0
   -9.2292   18.4480   -2.2318 H   0  0  0  0  0  0  0  0  0  0  0  0
   -8.7930   17.5943    0.0620 H   0  0  0  0  0  0  0  0  0  0  0  0
  -10.0264   16.6072   -0.8153 H   0  0  0  0  0  0  0  0  0  0  0  0
  1  2  1  0
  2  3  1  0
  3  4  1  0
  4  5  1  0
  5  6  1  0
  6  7  1  0
  7  8  1  0
  8  9  1  0
  9 10  2  0
 10 11  1  0
 11 12  2  0
 12 13  1  0
 13 14  1  0
 14 15  1  0
 15 16  1  0
 16 17  1  0
 17 18  1  0
 18 19  1  0
 19 20  1  0
 13 21  2  0
 12 22  1  0
 22 23  1  0
 23 24  1  0
 24 25  2  0
 25 26  1  0
 25 27  1  0
 27 28  2  0
 28 29  1  0
 29 30  2  0
 30 31  1  0
 31 32  1  0
 32 33  1  0
 22 34  1  0
 34 35  2  0
 35 36  1  0
  5 37  1  0
 37 38  1  0
 38  2  1  0
 21  9  1  0
 30 24  1  0
 36 11  1  0
 20 15  1  0
 33 29  1  0
  1 39  1  0
  1 40  1  0
  1 41  1  0
  3 42  1  0
  3 43  1  0
  4 44  1  0
  4 45  1  0
  6 46  1  0
  6 47  1  0
  7 48  1  0
  7 49  1  0
 10 50  1  0
 15 51  1  0
 16 52  1  0
 16 53  1  0
 17 54  1  0
 17 55  1  0
 19 56  1  0
 19 57  1  0
 20 58  1  0
 20 59  1  0
 21 60  1  0
 22 61  1  0
 23 62  1  0
 27 63  1  0
 28 64  1  0
 32 65  1  0
 32 66  1  0
 35 67  1  0
 36 68  1  0
 37 69  1  0
 37 70  1  0
 38 71  1  0
 38 72  1  0
M  END
>  <meeko>  (3)
{"is_sidechain": false}

>  <source_group>  (3)
FYN canonical

>  <source_system>  (3)
FYN_saracatinib

>  <source_run>  (3)
vina_seed7723_ex64

>  <source_seed>  (3)
7723

>  <vina_pose_rank>  (3)
3

>  <vina_affinity_kcal_mol>  (3)
-8.9789999999999992

>  <vina_rmsd_to_crystal_angstrom>  (3)
1.462

$$$$
FYN_saracatinib__vina_seed7723_ex64__pose04
     RDKit          3D

 72 77  0  0  0  0  0  0  0  0999 V2000
   -8.2550   18.6930   -4.5230 C   0  0  0  0  0  0  0  0  0  0  0  0
   -7.8000   17.3490   -4.8320 N   0  0  0  0  0  0  0  0  0  0  0  0
   -8.2670   16.4160   -3.8230 C   0  0  0  0  0  0  0  0  0  0  0  0
   -7.8600   14.9720   -4.1490 C   0  0  0  0  0  0  0  0  0  0  0  0
   -8.3320   14.5450   -5.4620 N   0  0  0  0  0  0  0  0  0  0  0  0
   -7.8490   13.1930   -5.7250 C   0  0  0  0  0  0  0  0  0  0  0  0
   -8.7880   12.2770   -6.5270 C   0  0  0  0  0  0  0  0  0  0  0  0
  -10.1310   12.6930   -6.4600 O   0  0  0  0  0  0  0  0  0  0  0  0
  -10.6850   13.1210   -7.6410 C   0  0  0  0  0  0  0  0  0  0  0  0
  -11.1630   14.3590   -7.8090 C   0  0  0  0  0  0  0  0  0  0  0  0
  -11.7070   14.7490   -8.9700 C   0  0  0  0  0  0  0  0  0  0  0  0
  -11.8140   13.9210  -10.0460 C   0  0  0  0  0  0  0  0  0  0  0  0
  -11.3400   12.6530   -9.8970 C   0  0  0  0  0  0  0  0  0  0  0  0
  -11.3810   11.7340  -10.9300 O   0  0  0  0  0  0  0  0  0  0  0  0
  -10.8560   10.4340  -10.8170 C   0  0  0  0  0  0  0  0  0  0  0  0
  -11.9240    9.3410  -10.8390 C   0  0  0  0  0  0  0  0  0  0  0  0
  -11.3030    7.9690  -11.0800 C   0  0  0  0  0  0  0  0  0  0  0  0
  -10.5560    7.9600  -12.2720 O   0  0  0  0  0  0  0  0  0  0  0  0
   -9.4500    8.8140  -12.1600 C   0  0  0  0  0  0  0  0  0  0  0  0
   -9.9240   10.2570  -12.0280 C   0  0  0  0  0  0  0  0  0  0  0  0
  -10.7940   12.3080   -8.7090 C   0  0  0  0  0  0  0  0  0  0  0  0
  -12.3850   14.4490  -11.1670 C   0  0  0  0  0  0  0  0  0  0  0  0
  -12.6550   13.9850  -12.3320 N   0  0  0  0  0  0  0  0  0  0  0  0
  -13.6700   13.9000  -13.1060 C   0  0  0  0  0  0  0  0  0  0  0  0
  -14.6270   12.9570  -12.8730 C   0  0  0  0  0  0  0  0  0  0  0  0
  -14.5730   11.8230  -11.5530 Cl  0  0  0  0  0  0  0  0  0  0  0  0
  -15.7140   12.8510  -13.6610 C   0  0  0  0  0  0  0  0  0  0  0  0
  -15.9000   13.6590  -14.7150 C   0  0  0  0  0  0  0  0  0  0  0  0
  -14.9660   14.5830  -14.9580 C   0  0  0  0  0  0  0  0  0  0  0  0
  -13.8840   14.6970  -14.1780 C   0  0  0  0  0  0  0  0  0  0  0  0
  -13.1690   15.6120  -14.5930 O   0  0  0  0  0  0  0  0  0  0  0  0
  -13.7490   16.1380  -15.7860 C   0  0  0  0  0  0  0  0  0  0  0  0
  -14.9640   15.4030  -15.8750 O   0  0  0  0  0  0  0  0  0  0  0  0
  -12.7760   15.6640  -11.1160 N   0  0  0  0  0  0  0  0  0  0  0  0
  -12.6320   16.3470  -10.0650 C   0  0  0  0  0  0  0  0  0  0  0  0
  -12.1160   15.9490   -8.9890 N   0  0  0  0  0  0  0  0  0  0  0  0
   -7.8380   15.4910   -6.4520 C   0  0  0  0  0  0  0  0  0  0  0  0
   -8.2800   16.9330   -6.1380 C   0  0  0  0  0  0  0  0  0  0  0  0
   -8.2991   18.8233   -3.4316 H   0  0  0  0  0  0  0  0  0  0  0  0
   -7.5545   19.4249   -4.9516 H   0  0  0  0  0  0  0  0  0  0  0  0
   -9.2560   18.8489   -4.9516 H   0  0  0  0  0  0  0  0  0  0  0  0
   -7.8349   16.6969   -2.8512 H   0  0  0  0  0  0  0  0  0  0  0  0
   -9.3656   16.4635   -3.7960 H   0  0  0  0  0  0  0  0  0  0  0  0
   -6.7625   14.9007   -4.1276 H   0  0  0  0  0  0  0  0  0  0  0  0
   -8.3209   14.3152   -3.3965 H   0  0  0  0  0  0  0  0  0  0  0  0
   -6.9054   13.2773   -6.2840 H   0  0  0  0  0  0  0  0  0  0  0  0
   -7.7516   12.7195   -4.7369 H   0  0  0  0  0  0  0  0  0  0  0  0
   -8.4696   12.2798   -7.5799 H   0  0  0  0  0  0  0  0  0  0  0  0
   -8.7272   11.2695   -6.0897 H   0  0  0  0  0  0  0  0  0  0  0  0
  -11.1083   15.0737   -6.9746 H   0  0  0  0  0  0  0  0  0  0  0  0
  -10.3442   10.3308   -9.8488 H   0  0  0  0  0  0  0  0  0  0  0  0
  -12.4490    9.3326   -9.8724 H   0  0  0  0  0  0  0  0  0  0  0  0
  -12.6253    9.5552  -11.6590 H   0  0  0  0  0  0  0  0  0  0  0  0
  -10.6407    7.7202  -10.2377 H   0  0  0  0  0  0  0  0  0  0  0  0
  -12.1106    7.2270  -11.1650 H   0  0  0  0  0  0  0  0  0  0  0  0
   -8.8647    8.5389  -11.2702 H   0  0  0  0  0  0  0  0  0  0  0  0
   -8.8239    8.7178  -13.0593 H   0  0  0  0  0  0  0  0  0  0  0  0
   -9.0484   10.9112  -11.9042 H   0  0  0  0  0  0  0  0  0  0  0  0
  -10.4841   10.5216  -12.9370 H   0  0  0  0  0  0  0  0  0  0  0  0
  -10.4086   11.2828   -8.6070 H   0  0  0  0  0  0  0  0  0  0  0  0
  -11.3935   14.7656  -11.5229 H   0  0  0  0  0  0  0  0  0  0  0  0
  -11.8120   13.5500  -12.7900 H   0  0  0  0  0  0  0  0  0  0  0  0
  -16.4679   12.0827  -13.4345 H   0  0  0  0  0  0  0  0  0  0  0  0
  -16.7889   13.5645  -15.3560 H   0  0  0  0  0  0  0  0  0  0  0  0
  -13.9409   17.2173  -15.6946 H   0  0  0  0  0  0  0  0  0  0  0  0
  -13.1053   16.0387  -16.6725 H   0  0  0  0  0  0  0  0  0  0  0  0
  -12.9908   17.3865  -10.0921 H   0  0  0  0  0  0  0  0  0  0  0  0
  -12.0350   16.5370   -8.2030 H   0  0  0  0  0  0  0  0  0  0  0  0
   -6.7388   15.4507   -6.4652 H   0  0  0  0  0  0  0  0  0  0  0  0
   -8.2564   15.2111   -7.4301 H   0  0  0  0  0  0  0  0  0  0  0  0
   -7.8726   17.6095   -6.9038 H   0  0  0  0  0  0  0  0  0  0  0  0
   -9.3793   16.9715   -6.1372 H   0  0  0  0  0  0  0  0  0  0  0  0
  1  2  1  0
  2  3  1  0
  3  4  1  0
  4  5  1  0
  5  6  1  0
  6  7  1  0
  7  8  1  0
  8  9  1  0
  9 10  2  0
 10 11  1  0
 11 12  2  0
 12 13  1  0
 13 14  1  0
 14 15  1  0
 15 16  1  0
 16 17  1  0
 17 18  1  0
 18 19  1  0
 19 20  1  0
 13 21  2  0
 12 22  1  0
 22 23  1  0
 23 24  1  0
 24 25  2  0
 25 26  1  0
 25 27  1  0
 27 28  2  0
 28 29  1  0
 29 30  2  0
 30 31  1  0
 31 32  1  0
 32 33  1  0
 22 34  1  0
 34 35  2  0
 35 36  1  0
  5 37  1  0
 37 38  1  0
 38  2  1  0
 21  9  1  0
 30 24  1  0
 36 11  1  0
 20 15  1  0
 33 29  1  0
  1 39  1  0
  1 40  1  0
  1 41  1  0
  3 42  1  0
  3 43  1  0
  4 44  1  0
  4 45  1  0
  6 46  1  0
  6 47  1  0
  7 48  1  0
  7 49  1  0
 10 50  1  0
 15 51  1  0
 16 52  1  0
 16 53  1  0
 17 54  1  0
 17 55  1  0
 19 56  1  0
 19 57  1  0
 20 58  1  0
 20 59  1  0
 21 60  1  0
 22 61  1  0
 23 62  1  0
 27 63  1  0
 28 64  1  0
 32 65  1  0
 32 66  1  0
 35 67  1  0
 36 68  1  0
 37 69  1  0
 37 70  1  0
 38 71  1  0
 38 72  1  0
M  END
>  <meeko>  (4)
{"is_sidechain": false}

>  <source_group>  (4)
FYN canonical

>  <source_system>  (4)
FYN_saracatinib

>  <source_run>  (4)
vina_seed7723_ex64

>  <source_seed>  (4)
7723

>  <vina_pose_rank>  (4)
4

>  <vina_affinity_kcal_mol>  (4)
-8.8979999999999997

>  <vina_rmsd_to_crystal_angstrom>  (4)
2.7637

$$$$
FYN_saracatinib__vina_seed7723_ex64__pose05
     RDKit          3D

 72 77  0  0  0  0  0  0  0  0999 V2000
   -7.7130   21.5960   -3.6460 C   0  0  0  0  0  0  0  0  0  0  0  0
   -7.8380   20.2640   -4.2130 N   0  0  0  0  0  0  0  0  0  0  0  0
   -6.7250   19.9930   -5.1060 C   0  0  0  0  0  0  0  0  0  0  0  0
   -6.7880   18.5690   -5.6770 C   0  0  0  0  0  0  0  0  0  0  0  0
   -6.8320   17.5520   -4.6310 N   0  0  0  0  0  0  0  0  0  0  0  0
   -6.9580   16.2370   -5.2500 C   0  0  0  0  0  0  0  0  0  0  0  0
   -7.7960   16.1690   -6.5380 C   0  0  0  0  0  0  0  0  0  0  0  0
   -9.1340   15.8090   -6.2910 O   0  0  0  0  0  0  0  0  0  0  0  0
   -9.9300   15.6620   -7.4010 C   0  0  0  0  0  0  0  0  0  0  0  0
  -10.9950   16.4370   -7.6330 C   0  0  0  0  0  0  0  0  0  0  0  0
  -11.7600   16.2690   -8.7210 C   0  0  0  0  0  0  0  0  0  0  0  0
  -11.5130   15.3040   -9.6510 C   0  0  0  0  0  0  0  0  0  0  0  0
  -10.4380   14.4980   -9.4310 C   0  0  0  0  0  0  0  0  0  0  0  0
  -10.0840   13.4990  -10.3190 O   0  0  0  0  0  0  0  0  0  0  0  0
   -9.9950   12.1440   -9.9490 C   0  0  0  0  0  0  0  0  0  0  0  0
  -11.0400   11.7250   -8.9140 C   0  0  0  0  0  0  0  0  0  0  0  0
  -11.1430   10.2060   -8.8190 C   0  0  0  0  0  0  0  0  0  0  0  0
  -11.4320    9.6450  -10.0760 O   0  0  0  0  0  0  0  0  0  0  0  0
  -10.3660    9.8540  -10.9620 C   0  0  0  0  0  0  0  0  0  0  0  0
  -10.2150   11.3450  -11.2440 C   0  0  0  0  0  0  0  0  0  0  0  0
   -9.6910   14.7110   -8.3230 C   0  0  0  0  0  0  0  0  0  0  0  0
  -12.3700   15.2460  -10.7110 C   0  0  0  0  0  0  0  0  0  0  0  0
  -12.4580   14.4910  -11.7430 N   0  0  0  0  0  0  0  0  0  0  0  0
  -13.3570   14.1330  -12.5820 C   0  0  0  0  0  0  0  0  0  0  0  0
  -14.0980   13.0130  -12.3490 C   0  0  0  0  0  0  0  0  0  0  0  0
  -13.9130   11.9990  -10.9470 Cl  0  0  0  0  0  0  0  0  0  0  0  0
  -15.0600   12.6190  -13.2060 C   0  0  0  0  0  0  0  0  0  0  0  0
  -15.3250   13.3010  -14.3290 C   0  0  0  0  0  0  0  0  0  0  0  0
  -14.6010   14.3970  -14.5710 C   0  0  0  0  0  0  0  0  0  0  0  0
  -13.6450   14.7980  -13.7240 C   0  0  0  0  0  0  0  0  0  0  0  0
  -13.1160   15.8260  -14.1540 O   0  0  0  0  0  0  0  0  0  0  0  0
  -13.6890   16.1380  -15.4220 C   0  0  0  0  0  0  0  0  0  0  0  0
  -14.6990   15.1430  -15.5450 O   0  0  0  0  0  0  0  0  0  0  0  0
  -13.3290   16.0870  -10.7420 N   0  0  0  0  0  0  0  0  0  0  0  0
  -13.4730   16.9430   -9.8260 C   0  0  0  0  0  0  0  0  0  0  0  0
  -12.7340   17.0740   -8.8160 N   0  0  0  0  0  0  0  0  0  0  0  0
   -7.9610   17.8440   -3.7610 C   0  0  0  0  0  0  0  0  0  0  0  0
   -7.8740   19.2620   -3.1640 C   0  0  0  0  0  0  0  0  0  0  0  0
   -7.7193   21.5292   -2.5480 H   0  0  0  0  0  0  0  0  0  0  0  0
   -6.7683   22.0497   -3.9804 H   0  0  0  0  0  0  0  0  0  0  0  0
   -8.5568   22.2175   -3.9804 H   0  0  0  0  0  0  0  0  0  0  0  0
   -6.7523   20.7121   -5.9380 H   0  0  0  0  0  0  0  0  0  0  0  0
   -5.7925   20.0906   -4.5307 H   0  0  0  0  0  0  0  0  0  0  0  0
   -7.6915   18.4768   -6.2977 H   0  0  0  0  0  0  0  0  0  0  0  0
   -5.8749   18.4036   -6.2677 H   0  0  0  0  0  0  0  0  0  0  0  0
   -5.9453   15.8806   -5.4896 H   0  0  0  0  0  0  0  0  0  0  0  0
   -7.4951   15.6173   -4.5169 H   0  0  0  0  0  0  0  0  0  0  0  0
   -7.7798   17.1566   -7.0221 H   0  0  0  0  0  0  0  0  0  0  0  0
   -7.3550   15.3953   -7.1837 H   0  0  0  0  0  0  0  0  0  0  0  0
  -11.2490   17.2304   -6.9147 H   0  0  0  0  0  0  0  0  0  0  0  0
   -9.0181   11.9583   -9.4786 H   0  0  0  0  0  0  0  0  0  0  0  0
  -10.7533   12.1275   -7.9312 H   0  0  0  0  0  0  0  0  0  0  0  0
  -12.0176   12.1220   -9.2251 H   0  0  0  0  0  0  0  0  0  0  0  0
  -10.1869    9.8018   -8.4550 H   0  0  0  0  0  0  0  0  0  0  0  0
  -11.9563    9.9507   -8.1238 H   0  0  0  0  0  0  0  0  0  0  0  0
   -9.4375    9.4711  -10.5133 H   0  0  0  0  0  0  0  0  0  0  0  0
  -10.5674    9.3241  -11.9047 H   0  0  0  0  0  0  0  0  0  0  0  0
   -9.3521   11.4974  -11.9090 H   0  0  0  0  0  0  0  0  0  0  0  0
  -11.1417   11.7024  -11.7168 H   0  0  0  0  0  0  0  0  0  0  0  0
   -8.8214   14.0565   -8.1635 H   0  0  0  0  0  0  0  0  0  0  0  0
  -11.7233   15.9370  -11.2717 H   0  0  0  0  0  0  0  0  0  0  0  0
  -11.5400   14.0300  -11.9770 H   0  0  0  0  0  0  0  0  0  0  0  0
  -15.6429   11.7144  -12.9782 H   0  0  0  0  0  0  0  0  0  0  0  0
  -16.1096   12.9704  -15.0255 H   0  0  0  0  0  0  0  0  0  0  0  0
  -14.1219   17.1492  -15.4267 H   0  0  0  0  0  0  0  0  0  0  0  0
  -12.9630   16.1366  -16.2484 H   0  0  0  0  0  0  0  0  0  0  0  0
  -14.3211   17.6373   -9.9189 H   0  0  0  0  0  0  0  0  0  0  0  0
  -12.9040   17.7660   -8.1350 H   0  0  0  0  0  0  0  0  0  0  0  0
   -8.8902   17.7597   -4.3437 H   0  0  0  0  0  0  0  0  0  0  0  0
   -7.9472   17.1228   -2.9305 H   0  0  0  0  0  0  0  0  0  0  0  0
   -8.7530   19.4391   -2.5268 H   0  0  0  0  0  0  0  0  0  0  0  0
   -6.9494   19.3385   -2.5730 H   0  0  0  0  0  0  0  0  0  0  0  0
  1  2  1  0
  2  3  1  0
  3  4  1  0
  4  5  1  0
  5  6  1  0
  6  7  1  0
  7  8  1  0
  8  9  1  0
  9 10  2  0
 10 11  1  0
 11 12  2  0
 12 13  1  0
 13 14  1  0
 14 15  1  0
 15 16  1  0
 16 17  1  0
 17 18  1  0
 18 19  1  0
 19 20  1  0
 13 21  2  0
 12 22  1  0
 22 23  1  0
 23 24  1  0
 24 25  2  0
 25 26  1  0
 25 27  1  0
 27 28  2  0
 28 29  1  0
 29 30  2  0
 30 31  1  0
 31 32  1  0
 32 33  1  0
 22 34  1  0
 34 35  2  0
 35 36  1  0
  5 37  1  0
 37 38  1  0
 38  2  1  0
 21  9  1  0
 30 24  1  0
 36 11  1  0
 20 15  1  0
 33 29  1  0
  1 39  1  0
  1 40  1  0
  1 41  1  0
  3 42  1  0
  3 43  1  0
  4 44  1  0
  4 45  1  0
  6 46  1  0
  6 47  1  0
  7 48  1  0
  7 49  1  0
 10 50  1  0
 15 51  1  0
 16 52  1  0
 16 53  1  0
 17 54  1  0
 17 55  1  0
 19 56  1  0
 19 57  1  0
 20 58  1  0
 20 59  1  0
 21 60  1  0
 22 61  1  0
 23 62  1  0
 27 63  1  0
 28 64  1  0
 32 65  1  0
 32 66  1  0
 35 67  1  0
 36 68  1  0
 37 69  1  0
 37 70  1  0
 38 71  1  0
 38 72  1  0
M  END
>  <meeko>  (5)
{"is_sidechain": false}

>  <source_group>  (5)
FYN canonical

>  <source_system>  (5)
FYN_saracatinib

>  <source_run>  (5)
vina_seed7723_ex64

>  <source_seed>  (5)
7723

>  <vina_pose_rank>  (5)
5

>  <vina_affinity_kcal_mol>  (5)
-8.8089999999999993

>  <vina_rmsd_to_crystal_angstrom>  (5)
1.9962

$$$$
FYN_saracatinib__vina_seed7723_ex64__pose06
     RDKit          3D

 72 77  0  0  0  0  0  0  0  0999 V2000
   -7.9360    8.5320   -7.8390 C   0  0  0  0  0  0  0  0  0  0  0  0
   -7.9250    9.7350   -7.0260 N   0  0  0  0  0  0  0  0  0  0  0  0
   -6.7150   10.4980   -7.2750 C   0  0  0  0  0  0  0  0  0  0  0  0
   -6.6960   11.8120   -6.4800 C   0  0  0  0  0  0  0  0  0  0  0  0
   -7.8620   12.6450   -6.7550 N   0  0  0  0  0  0  0  0  0  0  0  0
   -7.8050   13.8360   -5.9150 C   0  0  0  0  0  0  0  0  0  0  0  0
   -8.0620   15.1800   -6.6180 C   0  0  0  0  0  0  0  0  0  0  0  0
   -9.3870   15.6260   -6.4550 O   0  0  0  0  0  0  0  0  0  0  0  0
  -10.1720   15.5970   -7.5820 C   0  0  0  0  0  0  0  0  0  0  0  0
  -11.2680   16.3520   -7.7190 C   0  0  0  0  0  0  0  0  0  0  0  0
  -12.0210   16.2990   -8.8270 C   0  0  0  0  0  0  0  0  0  0  0  0
  -11.7300   15.4790   -9.8750 C   0  0  0  0  0  0  0  0  0  0  0  0
  -10.6220   14.6960   -9.7560 C   0  0  0  0  0  0  0  0  0  0  0  0
  -10.2220   13.8410  -10.7660 O   0  0  0  0  0  0  0  0  0  0  0  0
   -9.9470   12.4780  -10.5500 C   0  0  0  0  0  0  0  0  0  0  0  0
  -10.6700   11.5490  -11.5260 C   0  0  0  0  0  0  0  0  0  0  0  0
  -10.0720   10.1460  -11.4930 C   0  0  0  0  0  0  0  0  0  0  0  0
   -8.6930   10.1820  -11.7670 O   0  0  0  0  0  0  0  0  0  0  0  0
   -8.0110   10.8610  -10.7470 C   0  0  0  0  0  0  0  0  0  0  0  0
   -8.4280   12.3270  -10.7350 C   0  0  0  0  0  0  0  0  0  0  0  0
   -9.8900   14.7900   -8.6220 C   0  0  0  0  0  0  0  0  0  0  0  0
  -12.5790   15.5290  -10.9420 C   0  0  0  0  0  0  0  0  0  0  0  0
  -12.6310   14.9170  -12.0670 N   0  0  0  0  0  0  0  0  0  0  0  0
  -13.4380   14.1400  -12.6870 C   0  0  0  0  0  0  0  0  0  0  0  0
  -13.8930   14.4810  -13.9270 C   0  0  0  0  0  0  0  0  0  0  0  0
  -13.4420   15.9410  -14.7610 Cl  0  0  0  0  0  0  0  0  0  0  0  0
  -14.7310   13.6780  -14.6110 C   0  0  0  0  0  0  0  0  0  0  0  0
  -15.1630   12.5150  -14.1020 C   0  0  0  0  0  0  0  0  0  0  0  0
  -14.7290   12.1730  -12.8860 C   0  0  0  0  0  0  0  0  0  0  0  0
  -13.8940   12.9640  -12.2000 C   0  0  0  0  0  0  0  0  0  0  0  0
  -13.6330   12.4450  -11.1120 O   0  0  0  0  0  0  0  0  0  0  0  0
  -14.3850   11.2380  -10.9910 C   0  0  0  0  0  0  0  0  0  0  0  0
  -15.0190   11.1540  -12.2610 O   0  0  0  0  0  0  0  0  0  0  0  0
  -13.5740   16.3260  -10.8690 N   0  0  0  0  0  0  0  0  0  0  0  0
  -13.7570   17.0440   -9.8470 C   0  0  0  0  0  0  0  0  0  0  0  0
  -13.0280   17.0690   -8.8210 N   0  0  0  0  0  0  0  0  0  0  0  0
   -9.0570   11.8580   -6.4860 C   0  0  0  0  0  0  0  0  0  0  0  0
   -9.0860   10.5580   -7.3130 C   0  0  0  0  0  0  0  0  0  0  0  0
   -7.9441    7.6476   -7.1850 H   0  0  0  0  0  0  0  0  0  0  0  0
   -8.8342    8.5268   -8.4739 H   0  0  0  0  0  0  0  0  0  0  0  0
   -7.0380    8.5103   -8.4739 H   0  0  0  0  0  0  0  0  0  0  0  0
   -5.8451    9.8918   -6.9819 H   0  0  0  0  0  0  0  0  0  0  0  0
   -6.6812   10.7458   -8.3462 H   0  0  0  0  0  0  0  0  0  0  0  0
   -6.6765   11.5749   -5.4060 H   0  0  0  0  0  0  0  0  0  0  0  0
   -5.8017   12.3755   -6.7845 H   0  0  0  0  0  0  0  0  0  0  0  0
   -8.5591   13.7231   -5.1222 H   0  0  0  0  0  0  0  0  0  0  0  0
   -6.7680   13.8890   -5.5520 H   0  0  0  0  0  0  0  0  0  0  0  0
   -7.3810   15.9346   -6.1974 H   0  0  0  0  0  0  0  0  0  0  0  0
   -7.8871   15.0344   -7.6942 H   0  0  0  0  0  0  0  0  0  0  0  0
  -11.5579   17.0316   -6.9041 H   0  0  0  0  0  0  0  0  0  0  0  0
  -10.2980   12.1893   -9.5483 H   0  0  0  0  0  0  0  0  0  0  0  0
  -11.7330   11.4932  -11.2485 H   0  0  0  0  0  0  0  0  0  0  0  0
  -10.5568   11.9535  -12.5427 H   0  0  0  0  0  0  0  0  0  0  0  0
  -10.2298    9.7106  -10.4952 H   0  0  0  0  0  0  0  0  0  0  0  0
  -10.5673    9.5345  -12.2616 H   0  0  0  0  0  0  0  0  0  0  0  0
   -8.2555   10.4037   -9.7769 H   0  0  0  0  0  0  0  0  0  0  0  0
   -6.9278   10.7927  -10.9261 H   0  0  0  0  0  0  0  0  0  0  0  0
   -7.9143   12.8382   -9.9075 H   0  0  0  0  0  0  0  0  0  0  0  0
   -8.1515   12.7730  -11.7018 H   0  0  0  0  0  0  0  0  0  0  0  0
   -8.9937   14.1571   -8.5436 H   0  0  0  0  0  0  0  0  0  0  0  0
  -11.9593   16.3150  -11.3982 H   0  0  0  0  0  0  0  0  0  0  0  0
  -11.7760   15.0960  -12.6560 H   0  0  0  0  0  0  0  0  0  0  0  0
  -15.0693   13.9840  -15.6120 H   0  0  0  0  0  0  0  0  0  0  0  0
  -15.8498   11.8663  -14.6654 H   0  0  0  0  0  0  0  0  0  0  0  0
  -13.7276   10.3738  -10.8149 H   0  0  0  0  0  0  0  0  0  0  0  0
  -15.0875   11.2370  -10.1445 H   0  0  0  0  0  0  0  0  0  0  0  0
  -14.6336   17.7085   -9.8536 H   0  0  0  0  0  0  0  0  0  0  0  0
  -13.2300   17.6550   -8.0560 H   0  0  0  0  0  0  0  0  0  0  0  0
   -9.0800   11.6002   -5.4169 H   0  0  0  0  0  0  0  0  0  0  0  0
   -9.9331   12.4609   -6.7670 H   0  0  0  0  0  0  0  0  0  0  0  0
   -9.9973    9.9939   -7.0653 H   0  0  0  0  0  0  0  0  0  0  0  0
   -9.0749   10.8208   -8.3811 H   0  0  0  0  0  0  0  0  0  0  0  0
  1  2  1  0
  2  3  1  0
  3  4  1  0
  4  5  1  0
  5  6  1  0
  6  7  1  0
  7  8  1  0
  8  9  1  0
  9 10  2  0
 10 11  1  0
 11 12  2  0
 12 13  1  0
 13 14  1  0
 14 15  1  0
 15 16  1  0
 16 17  1  0
 17 18  1  0
 18 19  1  0
 19 20  1  0
 13 21  2  0
 12 22  1  0
 22 23  1  0
 23 24  1  0
 24 25  2  0
 25 26  1  0
 25 27  1  0
 27 28  2  0
 28 29  1  0
 29 30  2  0
 30 31  1  0
 31 32  1  0
 32 33  1  0
 22 34  1  0
 34 35  2  0
 35 36  1  0
  5 37  1  0
 37 38  1  0
 38  2  1  0
 21  9  1  0
 30 24  1  0
 36 11  1  0
 20 15  1  0
 33 29  1  0
  1 39  1  0
  1 40  1  0
  1 41  1  0
  3 42  1  0
  3 43  1  0
  4 44  1  0
  4 45  1  0
  6 46  1  0
  6 47  1  0
  7 48  1  0
  7 49  1  0
 10 50  1  0
 15 51  1  0
 16 52  1  0
 16 53  1  0
 17 54  1  0
 17 55  1  0
 19 56  1  0
 19 57  1  0
 20 58  1  0
 20 59  1  0
 21 60  1  0
 22 61  1  0
 23 62  1  0
 27 63  1  0
 28 64  1  0
 32 65  1  0
 32 66  1  0
 35 67  1  0
 36 68  1  0
 37 69  1  0
 37 70  1  0
 38 71  1  0
 38 72  1  0
M  END
>  <meeko>  (6)
{"is_sidechain": false}

>  <source_group>  (6)
FYN canonical

>  <source_system>  (6)
FYN_saracatinib

>  <source_run>  (6)
vina_seed7723_ex64

>  <source_seed>  (6)
7723

>  <vina_pose_rank>  (6)
6

>  <vina_affinity_kcal_mol>  (6)
-8.7910000000000004

>  <vina_rmsd_to_crystal_angstrom>  (6)
3.9986000000000002

$$$$
FYN_saracatinib__vina_seed7723_ex64__pose07
     RDKit          3D

 72 77  0  0  0  0  0  0  0  0999 V2000
   -9.2090    9.0780   -8.7870 C   0  0  0  0  0  0  0  0  0  0  0  0
   -9.4620   10.4800   -8.5050 N   0  0  0  0  0  0  0  0  0  0  0  0
   -9.1050   10.7880   -7.1310 C   0  0  0  0  0  0  0  0  0  0  0  0
   -9.2990   12.2780   -6.8130 C   0  0  0  0  0  0  0  0  0  0  0  0
   -8.5460   13.1420   -7.7170 N   0  0  0  0  0  0  0  0  0  0  0  0
   -8.8360   14.5350   -7.3930 C   0  0  0  0  0  0  0  0  0  0  0  0
  -10.3210   14.9060   -7.2440 C   0  0  0  0  0  0  0  0  0  0  0  0
  -10.6720   16.0370   -8.0050 O   0  0  0  0  0  0  0  0  0  0  0  0
  -11.5540   15.8150   -9.0330 C   0  0  0  0  0  0  0  0  0  0  0  0
  -12.6020   16.6130   -9.2700 C   0  0  0  0  0  0  0  0  0  0  0  0
  -13.4550   16.3700  -10.2760 C   0  0  0  0  0  0  0  0  0  0  0  0
  -13.3180   15.3040  -11.1140 C   0  0  0  0  0  0  0  0  0  0  0  0
  -12.2620   14.4740  -10.8880 C   0  0  0  0  0  0  0  0  0  0  0  0
  -12.0170   13.3740  -11.6880 O   0  0  0  0  0  0  0  0  0  0  0  0
  -12.0190   12.0560  -11.1960 C   0  0  0  0  0  0  0  0  0  0  0  0
  -13.4220   11.5000  -10.9490 C   0  0  0  0  0  0  0  0  0  0  0  0
  -13.3900    9.9850  -10.7720 C   0  0  0  0  0  0  0  0  0  0  0  0
  -12.7960    9.3630  -11.8860 O   0  0  0  0  0  0  0  0  0  0  0  0
  -11.4430    9.7190  -11.9780 C   0  0  0  0  0  0  0  0  0  0  0  0
  -11.3210   11.2100  -12.2730 C   0  0  0  0  0  0  0  0  0  0  0  0
  -11.4260   14.7650   -9.8650 C   0  0  0  0  0  0  0  0  0  0  0  0
  -14.2540   15.1800  -12.0990 C   0  0  0  0  0  0  0  0  0  0  0  0
  -14.4510   14.3280  -13.0360 N   0  0  0  0  0  0  0  0  0  0  0  0
  -14.7850   14.3380  -14.2720 C   0  0  0  0  0  0  0  0  0  0  0  0
  -14.0190   15.0090  -15.1790 C   0  0  0  0  0  0  0  0  0  0  0  0
  -12.5680   15.8800  -14.7710 Cl  0  0  0  0  0  0  0  0  0  0  0  0
  -14.3370   15.0260  -16.4880 C   0  0  0  0  0  0  0  0  0  0  0  0
  -15.4230   14.3960  -16.9570 C   0  0  0  0  0  0  0  0  0  0  0  0
  -16.1850   13.7400  -16.0770 C   0  0  0  0  0  0  0  0  0  0  0  0
  -15.8760   13.7150  -14.7750 C   0  0  0  0  0  0  0  0  0  0  0  0
  -16.7170   13.0540  -14.1620 O   0  0  0  0  0  0  0  0  0  0  0  0
  -17.7260   12.6370  -15.0810 C   0  0  0  0  0  0  0  0  0  0  0  0
  -17.2140   13.1120  -16.3200 O   0  0  0  0  0  0  0  0  0  0  0  0
  -15.1790   16.0580  -12.1500 N   0  0  0  0  0  0  0  0  0  0  0  0
  -15.2170   17.0090  -11.3210 C   0  0  0  0  0  0  0  0  0  0  0  0
  -14.3990   17.2080  -10.3860 N   0  0  0  0  0  0  0  0  0  0  0  0
   -8.9340   12.8180   -9.0820 C   0  0  0  0  0  0  0  0  0  0  0  0
   -8.7040   11.3300   -9.4060 C   0  0  0  0  0  0  0  0  0  0  0  0
   -9.1094    8.5259   -7.8408 H   0  0  0  0  0  0  0  0  0  0  0  0
  -10.0469    8.6636   -9.3669 H   0  0  0  0  0  0  0  0  0  0  0  0
   -8.2791    8.9826   -9.3669 H   0  0  0  0  0  0  0  0  0  0  0  0
   -9.7393   10.1942   -6.4564 H   0  0  0  0  0  0  0  0  0  0  0  0
   -8.0418   10.5434   -6.9903 H   0  0  0  0  0  0  0  0  0  0  0  0
  -10.3681   12.5216   -6.9001 H   0  0  0  0  0  0  0  0  0  0  0  0
   -8.9275   12.4546   -5.7928 H   0  0  0  0  0  0  0  0  0  0  0  0
   -8.3353   14.7689   -6.4419 H   0  0  0  0  0  0  0  0  0  0  0  0
   -8.4735   15.1173   -8.2530 H   0  0  0  0  0  0  0  0  0  0  0  0
  -10.9327   14.0539   -7.5754 H   0  0  0  0  0  0  0  0  0  0  0  0
  -10.5016   15.1455   -6.1857 H   0  0  0  0  0  0  0  0  0  0  0  0
  -12.7675   17.4884   -8.6248 H   0  0  0  0  0  0  0  0  0  0  0  0
  -11.5119   12.0309  -10.2202 H   0  0  0  0  0  0  0  0  0  0  0  0
  -13.8352   11.9592  -10.0388 H   0  0  0  0  0  0  0  0  0  0  0  0
  -14.0496   11.7364  -11.8209 H   0  0  0  0  0  0  0  0  0  0  0  0
  -12.8097    9.7397   -9.8703 H   0  0  0  0  0  0  0  0  0  0  0  0
  -14.4231    9.6201  -10.6743 H   0  0  0  0  0  0  0  0  0  0  0  0
  -10.9401    9.4925  -11.0262 H   0  0  0  0  0  0  0  0  0  0  0  0
  -10.9712    9.1477  -12.7911 H   0  0  0  0  0  0  0  0  0  0  0  0
  -10.2556   11.4818  -12.3063 H   0  0  0  0  0  0  0  0  0  0  0  0
  -11.8068   11.4117  -13.2391 H   0  0  0  0  0  0  0  0  0  0  0  0
  -10.5736   14.0895   -9.7001 H   0  0  0  0  0  0  0  0  0  0  0  0
  -13.6226   15.7764  -12.7740 H   0  0  0  0  0  0  0  0  0  0  0  0
  -14.2970   13.3370  -12.7110 H   0  0  0  0  0  0  0  0  0  0  0  0
  -13.6887   15.5709  -17.1899 H   0  0  0  0  0  0  0  0  0  0  0  0
  -15.6776   14.4182  -18.0269 H   0  0  0  0  0  0  0  0  0  0  0  0
  -17.8334   11.5423  -15.0866 H   0  0  0  0  0  0  0  0  0  0  0  0
  -18.7292   13.0189  -14.8407 H   0  0  0  0  0  0  0  0  0  0  0  0
  -16.0410   17.7301  -11.4256 H   0  0  0  0  0  0  0  0  0  0  0  0
  -14.4890   17.9730   -9.7720 H   0  0  0  0  0  0  0  0  0  0  0  0
  -10.0013   13.0497   -9.2130 H   0  0  0  0  0  0  0  0  0  0  0  0
   -8.3121   13.4158   -9.7645 H   0  0  0  0  0  0  0  0  0  0  0  0
   -9.0228   11.1332  -10.4402 H   0  0  0  0  0  0  0  0  0  0  0  0
   -7.6341   11.1052   -9.2842 H   0  0  0  0  0  0  0  0  0  0  0  0
  1  2  1  0
  2  3  1  0
  3  4  1  0
  4  5  1  0
  5  6  1  0
  6  7  1  0
  7  8  1  0
  8  9  1  0
  9 10  2  0
 10 11  1  0
 11 12  2  0
 12 13  1  0
 13 14  1  0
 14 15  1  0
 15 16  1  0
 16 17  1  0
 17 18  1  0
 18 19  1  0
 19 20  1  0
 13 21  2  0
 12 22  1  0
 22 23  1  0
 23 24  1  0
 24 25  2  0
 25 26  1  0
 25 27  1  0
 27 28  2  0
 28 29  1  0
 29 30  2  0
 30 31  1  0
 31 32  1  0
 32 33  1  0
 22 34  1  0
 34 35  2  0
 35 36  1  0
  5 37  1  0
 37 38  1  0
 38  2  1  0
 21  9  1  0
 30 24  1  0
 36 11  1  0
 20 15  1  0
 33 29  1  0
  1 39  1  0
  1 40  1  0
  1 41  1  0
  3 42  1  0
  3 43  1  0
  4 44  1  0
  4 45  1  0
  6 46  1  0
  6 47  1  0
  7 48  1  0
  7 49  1  0
 10 50  1  0
 15 51  1  0
 16 52  1  0
 16 53  1  0
 17 54  1  0
 17 55  1  0
 19 56  1  0
 19 57  1  0
 20 58  1  0
 20 59  1  0
 21 60  1  0
 22 61  1  0
 23 62  1  0
 27 63  1  0
 28 64  1  0
 32 65  1  0
 32 66  1  0
 35 67  1  0
 36 68  1  0
 37 69  1  0
 37 70  1  0
 38 71  1  0
 38 72  1  0
M  END
>  <meeko>  (7)
{"is_sidechain": false}

>  <source_group>  (7)
FYN canonical

>  <source_system>  (7)
FYN_saracatinib

>  <source_run>  (7)
vina_seed7723_ex64

>  <source_seed>  (7)
7723

>  <vina_pose_rank>  (7)
7

>  <vina_affinity_kcal_mol>  (7)
-8.7699999999999996

>  <vina_rmsd_to_crystal_angstrom>  (7)
4.3406000000000002

$$$$
FYN_saracatinib__vina_seed7723_ex64__pose08
     RDKit          3D

 72 77  0  0  0  0  0  0  0  0999 V2000
   -6.4570    9.9750   -7.3400 C   0  0  0  0  0  0  0  0  0  0  0  0
   -6.8100   11.3680   -7.1260 N   0  0  0  0  0  0  0  0  0  0  0  0
   -8.2260   11.4860   -6.8260 C   0  0  0  0  0  0  0  0  0  0  0  0
   -8.6260   12.9390   -6.5300 C   0  0  0  0  0  0  0  0  0  0  0  0
   -7.8470   13.5200   -5.4410 N   0  0  0  0  0  0  0  0  0  0  0  0
   -8.2370   14.9150   -5.2680 C   0  0  0  0  0  0  0  0  0  0  0  0
   -8.4490   15.7270   -6.5570 C   0  0  0  0  0  0  0  0  0  0  0  0
   -9.7160   16.3400   -6.6020 O   0  0  0  0  0  0  0  0  0  0  0  0
  -10.4680   16.0750   -7.7200 C   0  0  0  0  0  0  0  0  0  0  0  0
  -11.5820   16.7550   -8.0190 C   0  0  0  0  0  0  0  0  0  0  0  0
  -12.3040   16.4710   -9.1120 C   0  0  0  0  0  0  0  0  0  0  0  0
  -11.9610   15.4800   -9.9820 C   0  0  0  0  0  0  0  0  0  0  0  0
  -10.8350   14.7700   -9.6950 C   0  0  0  0  0  0  0  0  0  0  0  0
  -10.3840   13.7550  -10.5180 O   0  0  0  0  0  0  0  0  0  0  0  0
  -10.2350   12.4260  -10.0810 C   0  0  0  0  0  0  0  0  0  0  0  0
  -11.3520   11.9630   -9.1460 C   0  0  0  0  0  0  0  0  0  0  0  0
  -11.3500   10.4450   -8.9950 C   0  0  0  0  0  0  0  0  0  0  0  0
  -11.4580    9.8170  -10.2500 O   0  0  0  0  0  0  0  0  0  0  0  0
  -10.3200   10.0790  -11.0250 C   0  0  0  0  0  0  0  0  0  0  0  0
  -10.2520   11.5660  -11.3560 C   0  0  0  0  0  0  0  0  0  0  0  0
  -10.1360   15.0980   -8.5840 C   0  0  0  0  0  0  0  0  0  0  0  0
  -12.7830   15.3010  -11.0560 C   0  0  0  0  0  0  0  0  0  0  0  0
  -12.7880   14.4880  -12.0470 N   0  0  0  0  0  0  0  0  0  0  0  0
  -13.6140   14.0830  -12.9380 C   0  0  0  0  0  0  0  0  0  0  0  0
  -14.3180   12.9330  -12.7390 C   0  0  0  0  0  0  0  0  0  0  0  0
  -14.1780   11.9390  -11.3170 Cl  0  0  0  0  0  0  0  0  0  0  0  0
  -15.2050   12.4880  -13.6510 C   0  0  0  0  0  0  0  0  0  0  0  0
  -15.4280   13.1480  -14.7960 C   0  0  0  0  0  0  0  0  0  0  0  0
  -14.7400   14.2740  -15.0040 C   0  0  0  0  0  0  0  0  0  0  0  0
  -13.8580   14.7250  -14.1030 C   0  0  0  0  0  0  0  0  0  0  0  0
  -13.3490   15.7720  -14.5100 O   0  0  0  0  0  0  0  0  0  0  0  0
  -13.8540   16.0470  -15.8160 C   0  0  0  0  0  0  0  0  0  0  0  0
  -14.8080   15.0060  -15.9910 O   0  0  0  0  0  0  0  0  0  0  0  0
  -13.8010   16.0650  -11.1550 N   0  0  0  0  0  0  0  0  0  0  0  0
  -14.0320   16.9540  -10.2900 C   0  0  0  0  0  0  0  0  0  0  0  0
  -13.3320   17.1950   -9.2730 N   0  0  0  0  0  0  0  0  0  0  0  0
   -6.4360   13.3960   -5.7760 C   0  0  0  0  0  0  0  0  0  0  0  0
   -6.0330   11.9320   -6.0370 C   0  0  0  0  0  0  0  0  0  0  0  0
   -6.3304    9.4754   -6.3682 H   0  0  0  0  0  0  0  0  0  0  0  0
   -7.2573    9.4769   -7.9069 H   0  0  0  0  0  0  0  0  0  0  0  0
   -5.5160    9.9181   -7.9069 H   0  0  0  0  0  0  0  0  0  0  0  0
   -8.8044   11.1262   -7.6897 H   0  0  0  0  0  0  0  0  0  0  0  0
   -8.4376   10.8834   -5.9304 H   0  0  0  0  0  0  0  0  0  0  0  0
   -8.4682   13.5406   -7.4373 H   0  0  0  0  0  0  0  0  0  0  0  0
   -9.6826   12.9402   -6.2242 H   0  0  0  0  0  0  0  0  0  0  0  0
   -9.1801   14.9319   -4.7021 H   0  0  0  0  0  0  0  0  0  0  0  0
   -7.3911   15.3950   -4.7541 H   0  0  0  0  0  0  0  0  0  0  0  0
   -7.6763   16.5079   -6.6139 H   0  0  0  0  0  0  0  0  0  0  0  0
   -8.3820   15.0317   -7.4067 H   0  0  0  0  0  0  0  0  0  0  0  0
  -11.9122   17.5653   -7.3524 H   0  0  0  0  0  0  0  0  0  0  0  0
   -9.3044   12.3354   -9.5015 H   0  0  0  0  0  0  0  0  0  0  0  0
  -11.2059   12.4223   -8.1572 H   0  0  0  0  0  0  0  0  0  0  0  0
  -12.3167   12.2693   -9.5767 H   0  0  0  0  0  0  0  0  0  0  0  0
  -10.4113   10.1317   -8.5147 H   0  0  0  0  0  0  0  0  0  0  0  0
  -12.2125   10.1512   -8.3787 H   0  0  0  0  0  0  0  0  0  0  0  0
   -9.4203    9.7885  -10.4627 H   0  0  0  0  0  0  0  0  0  0  0  0
  -10.3757    9.5010  -11.9592 H   0  0  0  0  0  0  0  0  0  0  0  0
   -9.3358   11.7626  -11.9322 H   0  0  0  0  0  0  0  0  0  0  0  0
  -11.1457   11.8313  -11.9399 H   0  0  0  0  0  0  0  0  0  0  0  0
   -9.2245   14.5206   -8.3700 H   0  0  0  0  0  0  0  0  0  0  0  0
  -12.1750   16.0082  -11.6392 H   0  0  0  0  0  0  0  0  0  0  0  0
  -11.8560   14.0140  -12.1760 H   0  0  0  0  0  0  0  0  0  0  0  0
  -15.7599   11.5596  -13.4505 H   0  0  0  0  0  0  0  0  0  0  0  0
  -16.1509   12.7762  -15.5371 H   0  0  0  0  0  0  0  0  0  0  0  0
  -14.3309   17.0373  -15.8595 H   0  0  0  0  0  0  0  0  0  0  0  0
  -13.0777   16.0719  -16.5949 H   0  0  0  0  0  0  0  0  0  0  0  0
  -14.9275   17.5752  -10.4388 H   0  0  0  0  0  0  0  0  0  0  0  0
  -13.5700   17.9070   -8.6350 H   0  0  0  0  0  0  0  0  0  0  0  0
   -6.2322   13.9875   -6.6808 H   0  0  0  0  0  0  0  0  0  0  0  0
   -5.8495   13.7634   -4.9210 H   0  0  0  0  0  0  0  0  0  0  0  0
   -4.9652   11.8933   -6.2985 H   0  0  0  0  0  0  0  0  0  0  0  0
   -6.2265   11.3461   -5.1264 H   0  0  0  0  0  0  0  0  0  0  0  0
  1  2  1  0
  2  3  1  0
  3  4  1  0
  4  5  1  0
  5  6  1  0
  6  7  1  0
  7  8  1  0
  8  9  1  0
  9 10  2  0
 10 11  1  0
 11 12  2  0
 12 13  1  0
 13 14  1  0
 14 15  1  0
 15 16  1  0
 16 17  1  0
 17 18  1  0
 18 19  1  0
 19 20  1  0
 13 21  2  0
 12 22  1  0
 22 23  1  0
 23 24  1  0
 24 25  2  0
 25 26  1  0
 25 27  1  0
 27 28  2  0
 28 29  1  0
 29 30  2  0
 30 31  1  0
 31 32  1  0
 32 33  1  0
 22 34  1  0
 34 35  2  0
 35 36  1  0
  5 37  1  0
 37 38  1  0
 38  2  1  0
 21  9  1  0
 30 24  1  0
 36 11  1  0
 20 15  1  0
 33 29  1  0
  1 39  1  0
  1 40  1  0
  1 41  1  0
  3 42  1  0
  3 43  1  0
  4 44  1  0
  4 45  1  0
  6 46  1  0
  6 47  1  0
  7 48  1  0
  7 49  1  0
 10 50  1  0
 15 51  1  0
 16 52  1  0
 16 53  1  0
 17 54  1  0
 17 55  1  0
 19 56  1  0
 19 57  1  0
 20 58  1  0
 20 59  1  0
 21 60  1  0
 22 61  1  0
 23 62  1  0
 27 63  1  0
 28 64  1  0
 32 65  1  0
 32 66  1  0
 35 67  1  0
 36 68  1  0
 37 69  1  0
 37 70  1  0
 38 71  1  0
 38 72  1  0
M  END
>  <meeko>  (8)
{"is_sidechain": false}

>  <source_group>  (8)
FYN canonical

>  <source_system>  (8)
FYN_saracatinib

>  <source_run>  (8)
vina_seed7723_ex64

>  <source_seed>  (8)
7723

>  <vina_pose_rank>  (8)
8

>  <vina_affinity_kcal_mol>  (8)
-8.7409999999999997

>  <vina_rmsd_to_crystal_angstrom>  (8)
2.9154

$$$$
FYN_saracatinib__vina_seed7723_ex64__pose09
     RDKit          3D

 72 77  0  0  0  0  0  0  0  0999 V2000
   -7.5320   21.7760   -3.8350 C   0  0  0  0  0  0  0  0  0  0  0  0
   -7.7630   20.4180   -4.2960 N   0  0  0  0  0  0  0  0  0  0  0  0
   -6.6990   20.0050   -5.1930 C   0  0  0  0  0  0  0  0  0  0  0  0
   -6.8740   18.5500   -5.6530 C   0  0  0  0  0  0  0  0  0  0  0  0
   -6.9560   17.6190   -4.5320 N   0  0  0  0  0  0  0  0  0  0  0  0
   -7.1890   16.2740   -5.0470 C   0  0  0  0  0  0  0  0  0  0  0  0
   -7.9600   16.1770   -6.3740 C   0  0  0  0  0  0  0  0  0  0  0  0
   -9.3180   15.8570   -6.1850 O   0  0  0  0  0  0  0  0  0  0  0  0
  -10.0690   15.7370   -7.3280 C   0  0  0  0  0  0  0  0  0  0  0  0
  -11.1520   16.4870   -7.5630 C   0  0  0  0  0  0  0  0  0  0  0  0
  -11.8730   16.3440   -8.6840 C   0  0  0  0  0  0  0  0  0  0  0  0
  -11.5620   15.4330   -9.6470 C   0  0  0  0  0  0  0  0  0  0  0  0
  -10.4670   14.6530   -9.4270 C   0  0  0  0  0  0  0  0  0  0  0  0
  -10.0490   13.7080  -10.3460 O   0  0  0  0  0  0  0  0  0  0  0  0
   -9.8460   12.3560  -10.0130 C   0  0  0  0  0  0  0  0  0  0  0  0
  -10.8350   11.8280   -8.9730 C   0  0  0  0  0  0  0  0  0  0  0  0
  -10.8130   10.3040   -8.9180 C   0  0  0  0  0  0  0  0  0  0  0  0
  -11.0790    9.7530  -10.1840 O   0  0  0  0  0  0  0  0  0  0  0  0
  -10.0480   10.0700  -11.0800 C   0  0  0  0  0  0  0  0  0  0  0  0
  -10.0240   11.5750  -11.3260 C   0  0  0  0  0  0  0  0  0  0  0  0
   -9.7670   14.8380   -8.2840 C   0  0  0  0  0  0  0  0  0  0  0  0
  -12.3790   15.3970  -10.7390 C   0  0  0  0  0  0  0  0  0  0  0  0
  -12.4060   14.6890  -11.8070 N   0  0  0  0  0  0  0  0  0  0  0  0
  -13.2530   13.9760  -12.4520 C   0  0  0  0  0  0  0  0  0  0  0  0
  -13.7240   14.4040  -13.6580 C   0  0  0  0  0  0  0  0  0  0  0  0
  -13.2420   15.8950  -14.4170 Cl  0  0  0  0  0  0  0  0  0  0  0  0
  -14.6040   13.6700  -14.3670 C   0  0  0  0  0  0  0  0  0  0  0  0
  -15.0640   12.4950  -13.9150 C   0  0  0  0  0  0  0  0  0  0  0  0
  -14.6150   12.0680  -12.7320 C   0  0  0  0  0  0  0  0  0  0  0  0
  -13.7380   12.7890  -12.0220 C   0  0  0  0  0  0  0  0  0  0  0  0
  -13.4710   12.2000  -10.9730 O   0  0  0  0  0  0  0  0  0  0  0  0
  -14.2600   11.0130  -10.9030 C   0  0  0  0  0  0  0  0  0  0  0  0
  -14.9250   11.0240  -12.1600 O   0  0  0  0  0  0  0  0  0  0  0  0
  -13.3650   16.2070  -10.7670 N   0  0  0  0  0  0  0  0  0  0  0  0
  -13.5690   17.0140   -9.8180 C   0  0  0  0  0  0  0  0  0  0  0  0
  -12.8700   17.1220   -8.7770 N   0  0  0  0  0  0  0  0  0  0  0  0
   -8.0370   18.0530   -3.6590 C   0  0  0  0  0  0  0  0  0  0  0  0
   -7.8370   19.5010   -3.1740 C   0  0  0  0  0  0  0  0  0  0  0  0
   -7.5289   21.7943   -2.7352 H   0  0  0  0  0  0  0  0  0  0  0  0
   -6.5607   22.1304   -4.2104 H   0  0  0  0  0  0  0  0  0  0  0  0
   -8.3315   22.4316   -4.2104 H   0  0  0  0  0  0  0  0  0  0  0  0
   -6.7032   20.6607   -6.0762 H   0  0  0  0  0  0  0  0  0  0  0  0
   -5.7454   20.0798   -4.6499 H   0  0  0  0  0  0  0  0  0  0  0  0
   -7.7992   18.4748   -6.2433 H   0  0  0  0  0  0  0  0  0  0  0  0
   -5.9916   18.2785   -6.2511 H   0  0  0  0  0  0  0  0  0  0  0  0
   -6.2089   15.7966   -5.1931 H   0  0  0  0  0  0  0  0  0  0  0  0
   -7.8276   15.7802   -4.2998 H   0  0  0  0  0  0  0  0  0  0  0  0
   -7.8942   17.1451   -6.8921 H   0  0  0  0  0  0  0  0  0  0  0  0
   -7.5053   15.3699   -6.9672 H   0  0  0  0  0  0  0  0  0  0  0  0
  -11.4575   17.2379   -6.8195 H   0  0  0  0  0  0  0  0  0  0  0  0
   -8.8496   12.2376   -9.5622 H   0  0  0  0  0  0  0  0  0  0  0  0
  -10.5639   12.2271   -7.9844 H   0  0  0  0  0  0  0  0  0  0  0  0
  -11.8469   12.1527   -9.2569 H   0  0  0  0  0  0  0  0  0  0  0  0
   -9.8206    9.9699   -8.5810 H   0  0  0  0  0  0  0  0  0  0  0  0
  -11.5903    9.9661   -8.2169 H   0  0  0  0  0  0  0  0  0  0  0  0
   -9.0841    9.7538  -10.6547 H   0  0  0  0  0  0  0  0  0  0  0  0
  -10.2208    9.5483  -12.0329 H   0  0  0  0  0  0  0  0  0  0  0  0
   -9.1886   11.8140  -12.0005 H   0  0  0  0  0  0  0  0  0  0  0  0
  -10.9846   11.8675  -11.7750 H   0  0  0  0  0  0  0  0  0  0  0  0
   -8.8822   14.2046   -8.1231 H   0  0  0  0  0  0  0  0  0  0  0  0
  -11.7369   16.1339  -11.2437 H   0  0  0  0  0  0  0  0  0  0  0  0
  -11.4770   14.6840  -12.3040 H   0  0  0  0  0  0  0  0  0  0  0  0
  -14.9534   14.0443  -15.3406 H   0  0  0  0  0  0  0  0  0  0  0  0
  -15.7856   11.9035  -14.4977 H   0  0  0  0  0  0  0  0  0  0  0  0
  -13.6282   10.1193  -10.7931 H   0  0  0  0  0  0  0  0  0  0  0  0
  -14.9426   10.9850  -10.0409 H   0  0  0  0  0  0  0  0  0  0  0  0
  -14.4368   17.6838   -9.9092 H   0  0  0  0  0  0  0  0  0  0  0  0
  -13.0860   17.7750   -8.0720 H   0  0  0  0  0  0  0  0  0  0  0  0
   -8.9866   17.9907   -4.2108 H   0  0  0  0  0  0  0  0  0  0  0  0
   -8.0473   17.3962   -2.7767 H   0  0  0  0  0  0  0  0  0  0  0  0
   -8.6834   19.7857   -2.5316 H   0  0  0  0  0  0  0  0  0  0  0  0
   -6.8926   19.5560   -2.6127 H   0  0  0  0  0  0  0  0  0  0  0  0
  1  2  1  0
  2  3  1  0
  3  4  1  0
  4  5  1  0
  5  6  1  0
  6  7  1  0
  7  8  1  0
  8  9  1  0
  9 10  2  0
 10 11  1  0
 11 12  2  0
 12 13  1  0
 13 14  1  0
 14 15  1  0
 15 16  1  0
 16 17  1  0
 17 18  1  0
 18 19  1  0
 19 20  1  0
 13 21  2  0
 12 22  1  0
 22 23  1  0
 23 24  1  0
 24 25  2  0
 25 26  1  0
 25 27  1  0
 27 28  2  0
 28 29  1  0
 29 30  2  0
 30 31  1  0
 31 32  1  0
 32 33  1  0
 22 34  1  0
 34 35  2  0
 35 36  1  0
  5 37  1  0
 37 38  1  0
 38  2  1  0
 21  9  1  0
 30 24  1  0
 36 11  1  0
 20 15  1  0
 33 29  1  0
  1 39  1  0
  1 40  1  0
  1 41  1  0
  3 42  1  0
  3 43  1  0
  4 44  1  0
  4 45  1  0
  6 46  1  0
  6 47  1  0
  7 48  1  0
  7 49  1  0
 10 50  1  0
 15 51  1  0
 16 52  1  0
 16 53  1  0
 17 54  1  0
 17 55  1  0
 19 56  1  0
 19 57  1  0
 20 58  1  0
 20 59  1  0
 21 60  1  0
 22 61  1  0
 23 62  1  0
 27 63  1  0
 28 64  1  0
 32 65  1  0
 32 66  1  0
 35 67  1  0
 36 68  1  0
 37 69  1  0
 37 70  1  0
 38 71  1  0
 38 72  1  0
M  END
>  <meeko>  (9)
{"is_sidechain": false}

>  <source_group>  (9)
FYN canonical

>  <source_system>  (9)
FYN_saracatinib

>  <source_run>  (9)
vina_seed7723_ex64

>  <source_seed>  (9)
7723

>  <vina_pose_rank>  (9)
9

>  <vina_affinity_kcal_mol>  (9)
-8.7210000000000001

>  <vina_rmsd_to_crystal_angstrom>  (9)
2.8147000000000002

$$$$
FYN_saracatinib__vina_seed7723_ex64__pose10
     RDKit          3D

 72 77  0  0  0  0  0  0  0  0999 V2000
   -7.0840    7.7090  -10.0650 C   0  0  0  0  0  0  0  0  0  0  0  0
   -7.1110    8.5620   -8.8900 N   0  0  0  0  0  0  0  0  0  0  0  0
   -6.4500    9.8240   -9.1700 C   0  0  0  0  0  0  0  0  0  0  0  0
   -6.5130   10.7800   -7.9700 C   0  0  0  0  0  0  0  0  0  0  0  0
   -7.8830   11.0340   -7.5340 N   0  0  0  0  0  0  0  0  0  0  0  0
   -7.8550   11.8920   -6.3540 C   0  0  0  0  0  0  0  0  0  0  0  0
   -8.8210   13.0890   -6.3580 C   0  0  0  0  0  0  0  0  0  0  0  0
  -10.1580   12.7000   -6.5680 O   0  0  0  0  0  0  0  0  0  0  0  0
  -10.7240   13.1190   -7.7470 C   0  0  0  0  0  0  0  0  0  0  0  0
  -11.2210   14.3500   -7.9130 C   0  0  0  0  0  0  0  0  0  0  0  0
  -11.7770   14.7310   -9.0730 C   0  0  0  0  0  0  0  0  0  0  0  0
  -11.8770   13.9000  -10.1470 C   0  0  0  0  0  0  0  0  0  0  0  0
  -11.3840   12.6390  -10.0000 C   0  0  0  0  0  0  0  0  0  0  0  0
  -11.4170   11.7190  -11.0310 O   0  0  0  0  0  0  0  0  0  0  0  0
  -10.8480   10.4360  -10.9290 C   0  0  0  0  0  0  0  0  0  0  0  0
  -11.8800    9.3260  -10.7250 C   0  0  0  0  0  0  0  0  0  0  0  0
  -11.2680    7.9530  -10.9830 C   0  0  0  0  0  0  0  0  0  0  0  0
  -10.7130    7.8860  -12.2740 O   0  0  0  0  0  0  0  0  0  0  0  0
   -9.6240    8.7630  -12.3820 C   0  0  0  0  0  0  0  0  0  0  0  0
  -10.1090   10.2040  -12.2570 C   0  0  0  0  0  0  0  0  0  0  0  0
  -10.8270   12.3030   -8.8140 C   0  0  0  0  0  0  0  0  0  0  0  0
  -12.4610   14.4190  -11.2660 C   0  0  0  0  0  0  0  0  0  0  0  0
  -12.7300   13.9500  -12.4280 N   0  0  0  0  0  0  0  0  0  0  0  0
  -13.7430   13.8690  -13.2070 C   0  0  0  0  0  0  0  0  0  0  0  0
  -14.6960   12.9190  -12.9870 C   0  0  0  0  0  0  0  0  0  0  0  0
  -14.6410   11.7700  -11.6810 Cl  0  0  0  0  0  0  0  0  0  0  0  0
  -15.7810   12.8170  -13.7800 C   0  0  0  0  0  0  0  0  0  0  0  0
  -15.9670   13.6360  -14.8250 C   0  0  0  0  0  0  0  0  0  0  0  0
  -15.0370   14.5680  -15.0540 C   0  0  0  0  0  0  0  0  0  0  0  0
  -13.9570   14.6780  -14.2700 C   0  0  0  0  0  0  0  0  0  0  0  0
  -13.2460   15.6000  -14.6720 O   0  0  0  0  0  0  0  0  0  0  0  0
  -13.8250   16.1390  -15.8600 C   0  0  0  0  0  0  0  0  0  0  0  0
  -15.0360   15.3990  -15.9610 O   0  0  0  0  0  0  0  0  0  0  0  0
  -12.8690   15.6270  -11.2130 N   0  0  0  0  0  0  0  0  0  0  0  0
  -12.7310   16.3140  -10.1640 C   0  0  0  0  0  0  0  0  0  0  0  0
  -12.2040   15.9240   -9.0900 N   0  0  0  0  0  0  0  0  0  0  0  0
   -8.5150    9.7540   -7.2500 C   0  0  0  0  0  0  0  0  0  0  0  0
   -8.4780    8.8130   -8.4700 C   0  0  0  0  0  0  0  0  0  0  0  0
   -7.0506    6.6549   -9.7522 H   0  0  0  0  0  0  0  0  0  0  0  0
   -7.9882    7.8846  -10.6664 H   0  0  0  0  0  0  0  0  0  0  0  0
   -6.1928    7.9414  -10.6664 H   0  0  0  0  0  0  0  0  0  0  0  0
   -5.3955    9.6272   -9.4133 H   0  0  0  0  0  0  0  0  0  0  0  0
   -6.9685   10.3012  -10.0146 H   0  0  0  0  0  0  0  0  0  0  0  0
   -5.9526   10.3357   -7.1342 H   0  0  0  0  0  0  0  0  0  0  0  0
   -6.0761   11.7401   -8.2819 H   0  0  0  0  0  0  0  0  0  0  0  0
   -8.0975   11.2687   -5.4807 H   0  0  0  0  0  0  0  0  0  0  0  0
   -6.8461   12.3297   -6.3338 H   0  0  0  0  0  0  0  0  0  0  0  0
   -8.7509   13.6026   -5.3878 H   0  0  0  0  0  0  0  0  0  0  0  0
   -8.5306   13.7512   -7.1869 H   0  0  0  0  0  0  0  0  0  0  0  0
  -11.1727   15.0661   -7.0794 H   0  0  0  0  0  0  0  0  0  0  0  0
  -10.1910   10.3976  -10.0476 H   0  0  0  0  0  0  0  0  0  0  0  0
  -12.2503    9.3655   -9.6899 H   0  0  0  0  0  0  0  0  0  0  0  0
  -12.7044    9.4803  -11.4367 H   0  0  0  0  0  0  0  0  0  0  0  0
  -10.4779    7.7656  -10.2410 H   0  0  0  0  0  0  0  0  0  0  0  0
  -12.0598    7.1939  -10.9007 H   0  0  0  0  0  0  0  0  0  0  0  0
   -8.9019    8.5495  -11.5802 H   0  0  0  0  0  0  0  0  0  0  0  0
   -9.1412    8.6250  -13.3607 H   0  0  0  0  0  0  0  0  0  0  0  0
   -9.2416   10.8787  -12.3061 H   0  0  0  0  0  0  0  0  0  0  0  0
  -10.8088   10.4056  -13.0814 H   0  0  0  0  0  0  0  0  0  0  0  0
  -10.4267   11.2834   -8.7128 H   0  0  0  0  0  0  0  0  0  0  0  0
  -11.4757   14.7488  -11.6272 H   0  0  0  0  0  0  0  0  0  0  0  0
  -11.8890   13.5030  -12.8800 H   0  0  0  0  0  0  0  0  0  0  0  0
  -16.5322   12.0429  -13.5646 H   0  0  0  0  0  0  0  0  0  0  0  0
  -16.8529   13.5442  -15.4705 H   0  0  0  0  0  0  0  0  0  0  0  0
  -14.0223   17.2161  -15.7553 H   0  0  0  0  0  0  0  0  0  0  0  0
  -13.1786   16.0548  -16.7460 H   0  0  0  0  0  0  0  0  0  0  0  0
  -13.1054   17.3480  -10.1906 H   0  0  0  0  0  0  0  0  0  0  0  0
  -12.1270   16.5140   -8.3050 H   0  0  0  0  0  0  0  0  0  0  0  0
   -7.9858    9.2736   -6.4139 H   0  0  0  0  0  0  0  0  0  0  0  0
   -9.5685    9.9423   -6.9959 H   0  0  0  0  0  0  0  0  0  0  0  0
   -8.9536    7.8579   -8.2026 H   0  0  0  0  0  0  0  0  0  0  0  0
   -9.0180    9.2923   -9.2998 H   0  0  0  0  0  0  0  0  0  0  0  0
  1  2  1  0
  2  3  1  0
  3  4  1  0
  4  5  1  0
  5  6  1  0
  6  7  1  0
  7  8  1  0
  8  9  1  0
  9 10  2  0
 10 11  1  0
 11 12  2  0
 12 13  1  0
 13 14  1  0
 14 15  1  0
 15 16  1  0
 16 17  1  0
 17 18  1  0
 18 19  1  0
 19 20  1  0
 13 21  2  0
 12 22  1  0
 22 23  1  0
 23 24  1  0
 24 25  2  0
 25 26  1  0
 25 27  1  0
 27 28  2  0
 28 29  1  0
 29 30  2  0
 30 31  1  0
 31 32  1  0
 32 33  1  0
 22 34  1  0
 34 35  2  0
 35 36  1  0
  5 37  1  0
 37 38  1  0
 38  2  1  0
 21  9  1  0
 30 24  1  0
 36 11  1  0
 20 15  1  0
 33 29  1  0
  1 39  1  0
  1 40  1  0
  1 41  1  0
  3 42  1  0
  3 43  1  0
  4 44  1  0
  4 45  1  0
  6 46  1  0
  6 47  1  0
  7 48  1  0
  7 49  1  0
 10 50  1  0
 15 51  1  0
 16 52  1  0
 16 53  1  0
 17 54  1  0
 17 55  1  0
 19 56  1  0
 19 57  1  0
 20 58  1  0
 20 59  1  0
 21 60  1  0
 22 61  1  0
 23 62  1  0
 27 63  1  0
 28 64  1  0
 32 65  1  0
 32 66  1  0
 35 67  1  0
 36 68  1  0
 37 69  1  0
 37 70  1  0
 38 71  1  0
 38 72  1  0
M  END
>  <meeko>  (10)
{"is_sidechain": false}

>  <source_group>  (10)
FYN canonical

>  <source_system>  (10)
FYN_saracatinib

>  <source_run>  (10)
vina_seed7723_ex64

>  <source_seed>  (10)
7723

>  <vina_pose_rank>  (10)
10

>  <vina_affinity_kcal_mol>  (10)
-8.5359999999999996

>  <vina_rmsd_to_crystal_angstrom>  (10)
4.6567999999999996

$$$$
