FYN_saracatinib__vina_seed7723_ex64__pose01


 40 45  0  0  0  0  0  0  0  0999 V2000
  -10.1130   16.0160   -7.4450 C   0  0  0  0  0  0  0  0  0  0  0  0
  -11.2320   16.7030   -7.7040 C   0  0  0  0  0  0  0  0  0  0  0  0
  -11.9840   16.4370   -8.7810 C   0  0  0  0  0  0  0  0  0  0  0  0
  -11.6690   15.4560   -9.6730 C   0  0  0  0  0  0  0  0  0  0  0  0
  -10.5380   14.7390   -9.4260 C   0  0  0  0  0  0  0  0  0  0  0  0
   -9.8080   15.0490   -8.3300 C   0  0  0  0  0  0  0  0  0  0  0  0
  -12.5200   15.2960  -10.7280 C   0  0  0  0  0  0  0  0  0  0  0  0
  -13.5380   16.0640  -10.7880 N   0  0  0  0  0  0  0  0  0  0  0  0
  -13.7410   16.9420   -9.9050 C   0  0  0  0  0  0  0  0  0  0  0  0
  -13.0140   17.1660   -8.9040 N   0  0  0  0  0  0  0  0  0  0  0  0
  -13.2320   17.8700   -8.2500 H   0  0  0  0  0  0  0  0  0  0  0  0
  -12.5550   14.4970  -11.7290 N   0  0  0  0  0  0  0  0  0  0  0  0
  -11.6260   14.0270  -11.8940 H   0  0  0  0  0  0  0  0  0  0  0  0
  -13.4080   14.1020  -12.5980 C   0  0  0  0  0  0  0  0  0  0  0  0
  -14.1260   12.9640  -12.3780 C   0  0  0  0  0  0  0  0  0  0  0  0
  -13.9690   11.9740  -10.9550 Cl  0  0  0  0  0  0  0  0  0  0  0  0
  -15.0410   12.5300  -13.2670 C   0  0  0  0  0  0  0  0  0  0  0  0
  -15.2790   13.1890  -14.4090 C   0  0  0  0  0  0  0  0  0  0  0  0
  -14.5780   14.3020  -14.6390 C   0  0  0  0  0  0  0  0  0  0  0  0
  -13.6680   14.7420  -13.7610 C   0  0  0  0  0  0  0  0  0  0  0  0
  -13.1520   15.7790  -14.1840 O   0  0  0  0  0  0  0  0  0  0  0  0
  -13.6830   16.0570  -15.4790 C   0  0  0  0  0  0  0  0  0  0  0  0
  -14.6570   15.0310  -15.6270 O   0  0  0  0  0  0  0  0  0  0  0  0
   -9.3300   16.2630   -6.3440 O   0  0  0  0  0  0  0  0  0  0  0  0
   -7.9620   15.9620   -6.4850 C   0  0  0  0  0  0  0  0  0  0  0  0
   -7.4840   14.9110   -5.4680 C   0  0  0  0  0  0  0  0  0  0  0  0
   -9.1910   13.7410   -0.2170 C   0  0  0  0  0  0  0  0  0  0  0  0
   -8.4750   13.8350   -1.4770 N   0  0  0  0  0  0  0  0  0  0  0  0
   -9.3080   13.3540   -2.5650 C   0  0  0  0  0  0  0  0  0  0  0  0
   -8.6080   13.4970   -3.9250 C   0  0  0  0  0  0  0  0  0  0  0  0
   -8.1980   14.8710   -4.1970 N   0  0  0  0  0  0  0  0  0  0  0  0
   -7.3570   15.3200   -3.0970 C   0  0  0  0  0  0  0  0  0  0  0  0
   -8.0770   15.2070   -1.7400 C   0  0  0  0  0  0  0  0  0  0  0  0
  -10.1140   13.7340  -10.2760 O   0  0  0  0  0  0  0  0  0  0  0  0
  -10.0300   12.3860   -9.8820 C   0  0  0  0  0  0  0  0  0  0  0  0
  -11.0550   11.9970   -8.8160 C   0  0  0  0  0  0  0  0  0  0  0  0
  -11.1700   10.4820   -8.6900 C   0  0  0  0  0  0  0  0  0  0  0  0
  -11.4950    9.9000   -9.9290 O   0  0  0  0  0  0  0  0  0  0  0  0
  -10.4470   10.0810  -10.8430 C   0  0  0  0  0  0  0  0  0  0  0  0
  -10.2880   11.5650  -11.1570 C   0  0  0  0  0  0  0  0  0  0  0  0
 27 28  1  0
 28 29  1  0
 29 30  1  0
 30 31  1  0
 31 26  1  0
 26 25  1  0
 25 24  1  0
 24  1  1  0
  1  2  2  0
  2  3  1  0
  3  4  2  0
  4  5  1  0
  5 34  1  0
 34 35  1  0
 35 36  1  0
 36 37  1  0
 37 38  1  0
 38 39  1  0
 39 40  1  0
  5  6  2  0
  4  7  1  0
  7 12  1  0
 12 14  1  0
 14 15  2  0
 15 16  1  0
 15 17  1  0
 17 18  2  0
 18 19  1  0
 19 20  2  0
 20 21  1  0
 21 22  1  0
 22 23  1  0
  7  8  1  0
  8  9  2  0
  9 10  1  0
 31 32  1  0
 32 33  1  0
 33 28  1  0
  6  1  1  0
 20 14  1  0
 10  3  1  0
 40 35  1  0
 23 19  1  0
 12 13  1  0
 10 11  1  0
M  END
> <meeko>
{"is_sidechain": false}

> <source_group>
FYN canonical

> <source_system>
FYN_saracatinib

> <source_run>
vina_seed7723_ex64

> <source_seed>
7723

> <vina_pose_rank>
1

> <vina_affinity_kcal_mol>
-9.2029999999999994

> <vina_rmsd_to_crystal_angstrom>
1.8878999999999999

> <minimizedAffinity>
-9.20413

> <CNNscore>
0.5832653046

> <CNNaffinity>
7.5286498070

> <CNN_VS>
4.3912000656

> <CNNaffinity_variance>
0.1369972974

$$$$
FYN_saracatinib__vina_seed7723_ex64__pose02


 40 45  0  0  0  0  0  0  0  0999 V2000
  -10.2110   16.1160   -7.3900 C   0  0  0  0  0  0  0  0  0  0  0  0
  -11.3290   16.7820   -7.7000 C   0  0  0  0  0  0  0  0  0  0  0  0
  -12.0260   16.5010   -8.8110 C   0  0  0  0  0  0  0  0  0  0  0  0
  -11.6530   15.5270   -9.6860 C   0  0  0  0  0  0  0  0  0  0  0  0
  -10.5210   14.8310   -9.3870 C   0  0  0  0  0  0  0  0  0  0  0  0
   -9.8480   15.1550   -8.2590 C   0  0  0  0  0  0  0  0  0  0  0  0
  -12.4520   15.3500  -10.7780 C   0  0  0  0  0  0  0  0  0  0  0  0
  -13.4790   16.0990  -10.8860 N   0  0  0  0  0  0  0  0  0  0  0  0
  -13.7390   16.9740  -10.0140 C   0  0  0  0  0  0  0  0  0  0  0  0
  -13.0620   17.2120   -8.9810 N   0  0  0  0  0  0  0  0  0  0  0  0
  -13.3230   17.9120   -8.3390 H   0  0  0  0  0  0  0  0  0  0  0  0
  -12.4260   14.5490  -11.7790 N   0  0  0  0  0  0  0  0  0  0  0  0
  -11.4540   14.4350  -12.1700 H   0  0  0  0  0  0  0  0  0  0  0  0
  -13.2560   13.8410  -12.4480 C   0  0  0  0  0  0  0  0  0  0  0  0
  -13.6680   14.2570  -13.6790 C   0  0  0  0  0  0  0  0  0  0  0  0
  -13.1320   15.7290  -14.4380 Cl  0  0  0  0  0  0  0  0  0  0  0  0
  -14.5300   13.5270  -14.4140 C   0  0  0  0  0  0  0  0  0  0  0  0
  -15.0270   12.3660  -13.9660 C   0  0  0  0  0  0  0  0  0  0  0  0
  -14.6350   11.9500  -12.7590 C   0  0  0  0  0  0  0  0  0  0  0  0
  -13.7770   12.6680  -12.0220 C   0  0  0  0  0  0  0  0  0  0  0  0
  -13.5640   12.0900  -10.9540 O   0  0  0  0  0  0  0  0  0  0  0  0
  -14.3740   10.9170  -10.9010 C   0  0  0  0  0  0  0  0  0  0  0  0
  -14.9860   10.9190  -12.1860 O   0  0  0  0  0  0  0  0  0  0  0  0
   -9.4830   16.3780   -6.2550 O   0  0  0  0  0  0  0  0  0  0  0  0
   -8.0840   16.3360   -6.4010 C   0  0  0  0  0  0  0  0  0  0  0  0
   -7.4100   15.4430   -5.3440 C   0  0  0  0  0  0  0  0  0  0  0  0
   -9.1690   13.6680   -0.2830 C   0  0  0  0  0  0  0  0  0  0  0  0
   -8.4280   13.9280   -1.5060 N   0  0  0  0  0  0  0  0  0  0  0  0
   -9.2000   13.5010   -2.6600 C   0  0  0  0  0  0  0  0  0  0  0  0
   -8.4770   13.8180   -3.9770 C   0  0  0  0  0  0  0  0  0  0  0  0
   -8.1520   15.2360   -4.1050 N   0  0  0  0  0  0  0  0  0  0  0  0
   -7.3710   15.6300   -2.9420 C   0  0  0  0  0  0  0  0  0  0  0  0
   -8.1160   15.3410   -1.6250 C   0  0  0  0  0  0  0  0  0  0  0  0
  -10.0400   13.8330  -10.2140 O   0  0  0  0  0  0  0  0  0  0  0  0
   -9.8870   12.4990   -9.7940 C   0  0  0  0  0  0  0  0  0  0  0  0
  -10.9690   12.0400   -8.8160 C   0  0  0  0  0  0  0  0  0  0  0  0
  -10.9770   10.5210   -8.6770 C   0  0  0  0  0  0  0  0  0  0  0  0
  -11.1430    9.9040   -9.9310 O   0  0  0  0  0  0  0  0  0  0  0  0
  -10.0350   10.1610  -10.7510 C   0  0  0  0  0  0  0  0  0  0  0  0
   -9.9650   11.6500  -11.0730 C   0  0  0  0  0  0  0  0  0  0  0  0
 27 28  1  0
 28 29  1  0
 29 30  1  0
 30 31  1  0
 31 26  1  0
 26 25  1  0
 25 24  1  0
 24  1  1  0
  1  2  2  0
  2  3  1  0
  3  4  2  0
  4  5  1  0
  5 34  1  0
 34 35  1  0
 35 36  1  0
 36 37  1  0
 37 38  1  0
 38 39  1  0
 39 40  1  0
  5  6  2  0
  4  7  1  0
  7 12  1  0
 12 14  1  0
 14 15  2  0
 15 16  1  0
 15 17  1  0
 17 18  2  0
 18 19  1  0
 19 20  2  0
 20 21  1  0
 21 22  1  0
 22 23  1  0
  7  8  1  0
  8  9  2  0
  9 10  1  0
 31 32  1  0
 32 33  1  0
 33 28  1  0
  6  1  1  0
 20 14  1  0
 10  3  1  0
 40 35  1  0
 23 19  1  0
 12 13  1  0
 10 11  1  0
M  END
> <meeko>
{"is_sidechain": false}

> <source_group>
FYN canonical

> <source_system>
FYN_saracatinib

> <source_run>
vina_seed7723_ex64

> <source_seed>
7723

> <vina_pose_rank>
2

> <vina_affinity_kcal_mol>
-9.0850000000000009

> <vina_rmsd_to_crystal_angstrom>
2.6656

> <minimizedAffinity>
-8.99353

> <CNNscore>
0.7811806798

> <CNNaffinity>
7.7132239342

> <CNN_VS>
6.0254216194

> <CNNaffinity_variance>
0.1469012648

$$$$
FYN_saracatinib__vina_seed7723_ex64__pose03


 40 45  0  0  0  0  0  0  0  0999 V2000
   -9.9850   15.7680   -7.4160 C   0  0  0  0  0  0  0  0  0  0  0  0
  -11.0610   16.5270   -7.6540 C   0  0  0  0  0  0  0  0  0  0  0  0
  -11.8280   16.3350   -8.7380 C   0  0  0  0  0  0  0  0  0  0  0  0
  -11.5700   15.3640   -9.6580 C   0  0  0  0  0  0  0  0  0  0  0  0
  -10.4830   14.5750   -9.4320 C   0  0  0  0  0  0  0  0  0  0  0  0
   -9.7370   14.8100   -8.3290 C   0  0  0  0  0  0  0  0  0  0  0  0
  -12.4290   15.2830  -10.7150 C   0  0  0  0  0  0  0  0  0  0  0  0
  -13.4000   16.1110  -10.7520 N   0  0  0  0  0  0  0  0  0  0  0  0
  -13.5520   16.9750   -9.8450 C   0  0  0  0  0  0  0  0  0  0  0  0
  -12.8120   17.1270   -8.8380 N   0  0  0  0  0  0  0  0  0  0  0  0
  -12.9890   17.8240   -8.1650 H   0  0  0  0  0  0  0  0  0  0  0  0
  -12.5110   14.5160  -11.7380 N   0  0  0  0  0  0  0  0  0  0  0  0
  -11.5900   14.0540  -11.9620 H   0  0  0  0  0  0  0  0  0  0  0  0
  -13.4040   14.1460  -12.5780 C   0  0  0  0  0  0  0  0  0  0  0  0
  -14.1360   13.0210  -12.3400 C   0  0  0  0  0  0  0  0  0  0  0  0
  -13.9460   12.0150  -10.9320 Cl  0  0  0  0  0  0  0  0  0  0  0  0
  -15.0930   12.6140  -13.1970 C   0  0  0  0  0  0  0  0  0  0  0  0
  -15.3600   13.2880  -14.3240 C   0  0  0  0  0  0  0  0  0  0  0  0
  -14.6450   14.3890  -14.5710 C   0  0  0  0  0  0  0  0  0  0  0  0
  -13.6950   14.8020  -13.7240 C   0  0  0  0  0  0  0  0  0  0  0  0
  -13.1730   15.8320  -14.1580 O   0  0  0  0  0  0  0  0  0  0  0  0
  -13.7470   16.1330  -15.4290 C   0  0  0  0  0  0  0  0  0  0  0  0
  -14.7470   15.1280  -15.5490 O   0  0  0  0  0  0  0  0  0  0  0  0
   -9.1890   15.9380   -6.3100 O   0  0  0  0  0  0  0  0  0  0  0  0
   -9.2800   17.1900   -5.6750 C   0  0  0  0  0  0  0  0  0  0  0  0
   -8.3240   17.3120   -4.4760 C   0  0  0  0  0  0  0  0  0  0  0  0
   -8.5720   15.0340    0.6820 C   0  0  0  0  0  0  0  0  0  0  0  0
   -8.1730   15.6950   -0.5480 N   0  0  0  0  0  0  0  0  0  0  0  0
   -8.3300   14.7940   -1.6760 C   0  0  0  0  0  0  0  0  0  0  0  0
   -7.9780   15.4780   -3.0050 C   0  0  0  0  0  0  0  0  0  0  0  0
   -8.7640   16.6870   -3.2330 N   0  0  0  0  0  0  0  0  0  0  0  0
   -8.5770   17.5730   -2.0940 C   0  0  0  0  0  0  0  0  0  0  0  0
   -8.9650   16.8920   -0.7670 C   0  0  0  0  0  0  0  0  0  0  0  0
  -10.1190   13.5710  -10.3100 O   0  0  0  0  0  0  0  0  0  0  0  0
  -10.0340   12.2180   -9.9320 C   0  0  0  0  0  0  0  0  0  0  0  0
  -11.0570   11.8170   -8.8690 C   0  0  0  0  0  0  0  0  0  0  0  0
  -11.1710   10.3000   -8.7600 C   0  0  0  0  0  0  0  0  0  0  0  0
  -11.4950    9.7310  -10.0050 O   0  0  0  0  0  0  0  0  0  0  0  0
  -10.4480    9.9240  -10.9170 C   0  0  0  0  0  0  0  0  0  0  0  0
  -10.2910   11.4110  -11.2150 C   0  0  0  0  0  0  0  0  0  0  0  0
 27 28  1  0
 28 29  1  0
 29 30  1  0
 30 31  1  0
 31 26  1  0
 26 25  1  0
 25 24  1  0
 24  1  1  0
  1  2  2  0
  2  3  1  0
  3  4  2  0
  4  5  1  0
  5 34  1  0
 34 35  1  0
 35 36  1  0
 36 37  1  0
 37 38  1  0
 38 39  1  0
 39 40  1  0
  5  6  2  0
  4  7  1  0
  7 12  1  0
 12 14  1  0
 14 15  2  0
 15 16  1  0
 15 17  1  0
 17 18  2  0
 18 19  1  0
 19 20  2  0
 20 21  1  0
 21 22  1  0
 22 23  1  0
  7  8  1  0
  8  9  2  0
  9 10  1  0
 31 32  1  0
 32 33  1  0
 33 28  1  0
  6  1  1  0
 20 14  1  0
 10  3  1  0
 40 35  1  0
 23 19  1  0
 12 13  1  0
 10 11  1  0
M  END
> <meeko>
{"is_sidechain": false}

> <source_group>
FYN canonical

> <source_system>
FYN_saracatinib

> <source_run>
vina_seed7723_ex64

> <source_seed>
7723

> <vina_pose_rank>
3

> <vina_affinity_kcal_mol>
-8.9789999999999992

> <vina_rmsd_to_crystal_angstrom>
1.462

> <minimizedAffinity>
-9.11022

> <CNNscore>
0.6629722118

> <CNNaffinity>
7.5800089836

> <CNN_VS>
5.0253353119

> <CNNaffinity_variance>
0.0558425449

$$$$
FYN_saracatinib__vina_seed7723_ex64__pose04


 40 45  0  0  0  0  0  0  0  0999 V2000
  -10.6850   13.1210   -7.6410 C   0  0  0  0  0  0  0  0  0  0  0  0
  -11.1630   14.3590   -7.8090 C   0  0  0  0  0  0  0  0  0  0  0  0
  -11.7070   14.7490   -8.9700 C   0  0  0  0  0  0  0  0  0  0  0  0
  -11.8140   13.9210  -10.0460 C   0  0  0  0  0  0  0  0  0  0  0  0
  -11.3400   12.6530   -9.8970 C   0  0  0  0  0  0  0  0  0  0  0  0
  -10.7940   12.3080   -8.7090 C   0  0  0  0  0  0  0  0  0  0  0  0
  -12.3850   14.4490  -11.1670 C   0  0  0  0  0  0  0  0  0  0  0  0
  -12.7760   15.6640  -11.1160 N   0  0  0  0  0  0  0  0  0  0  0  0
  -12.6320   16.3470  -10.0650 C   0  0  0  0  0  0  0  0  0  0  0  0
  -12.1160   15.9490   -8.9890 N   0  0  0  0  0  0  0  0  0  0  0  0
  -12.0350   16.5370   -8.2030 H   0  0  0  0  0  0  0  0  0  0  0  0
  -12.6550   13.9850  -12.3320 N   0  0  0  0  0  0  0  0  0  0  0  0
  -11.8120   13.5500  -12.7900 H   0  0  0  0  0  0  0  0  0  0  0  0
  -13.6700   13.9000  -13.1060 C   0  0  0  0  0  0  0  0  0  0  0  0
  -14.6270   12.9570  -12.8730 C   0  0  0  0  0  0  0  0  0  0  0  0
  -14.5730   11.8230  -11.5530 Cl  0  0  0  0  0  0  0  0  0  0  0  0
  -15.7140   12.8510  -13.6610 C   0  0  0  0  0  0  0  0  0  0  0  0
  -15.9000   13.6590  -14.7150 C   0  0  0  0  0  0  0  0  0  0  0  0
  -14.9660   14.5830  -14.9580 C   0  0  0  0  0  0  0  0  0  0  0  0
  -13.8840   14.6970  -14.1780 C   0  0  0  0  0  0  0  0  0  0  0  0
  -13.1690   15.6120  -14.5930 O   0  0  0  0  0  0  0  0  0  0  0  0
  -13.7490   16.1380  -15.7860 C   0  0  0  0  0  0  0  0  0  0  0  0
  -14.9640   15.4030  -15.8750 O   0  0  0  0  0  0  0  0  0  0  0  0
  -10.1310   12.6930   -6.4600 O   0  0  0  0  0  0  0  0  0  0  0  0
   -8.7880   12.2770   -6.5270 C   0  0  0  0  0  0  0  0  0  0  0  0
   -7.8490   13.1930   -5.7250 C   0  0  0  0  0  0  0  0  0  0  0  0
   -8.2550   18.6930   -4.5230 C   0  0  0  0  0  0  0  0  0  0  0  0
   -7.8000   17.3490   -4.8320 N   0  0  0  0  0  0  0  0  0  0  0  0
   -8.2670   16.4160   -3.8230 C   0  0  0  0  0  0  0  0  0  0  0  0
   -7.8600   14.9720   -4.1490 C   0  0  0  0  0  0  0  0  0  0  0  0
   -8.3320   14.5450   -5.4620 N   0  0  0  0  0  0  0  0  0  0  0  0
   -7.8380   15.4910   -6.4520 C   0  0  0  0  0  0  0  0  0  0  0  0
   -8.2800   16.9330   -6.1380 C   0  0  0  0  0  0  0  0  0  0  0  0
  -11.3810   11.7340  -10.9300 O   0  0  0  0  0  0  0  0  0  0  0  0
  -10.8560   10.4340  -10.8170 C   0  0  0  0  0  0  0  0  0  0  0  0
  -11.9240    9.3410  -10.8390 C   0  0  0  0  0  0  0  0  0  0  0  0
  -11.3030    7.9690  -11.0800 C   0  0  0  0  0  0  0  0  0  0  0  0
  -10.5560    7.9600  -12.2720 O   0  0  0  0  0  0  0  0  0  0  0  0
   -9.4500    8.8140  -12.1600 C   0  0  0  0  0  0  0  0  0  0  0  0
   -9.9240   10.2570  -12.0280 C   0  0  0  0  0  0  0  0  0  0  0  0
 27 28  1  0
 28 29  1  0
 29 30  1  0
 30 31  1  0
 31 26  1  0
 26 25  1  0
 25 24  1  0
 24  1  1  0
  1  2  2  0
  2  3  1  0
  3  4  2  0
  4  5  1  0
  5 34  1  0
 34 35  1  0
 35 36  1  0
 36 37  1  0
 37 38  1  0
 38 39  1  0
 39 40  1  0
  5  6  2  0
  4  7  1  0
  7 12  1  0
 12 14  1  0
 14 15  2  0
 15 16  1  0
 15 17  1  0
 17 18  2  0
 18 19  1  0
 19 20  2  0
 20 21  1  0
 21 22  1  0
 22 23  1  0
  7  8  1  0
  8  9  2  0
  9 10  1  0
 31 32  1  0
 32 33  1  0
 33 28  1  0
  6  1  1  0
 20 14  1  0
 10  3  1  0
 40 35  1  0
 23 19  1  0
 12 13  1  0
 10 11  1  0
M  END
> <meeko>
{"is_sidechain": false}

> <source_group>
FYN canonical

> <source_system>
FYN_saracatinib

> <source_run>
vina_seed7723_ex64

> <source_seed>
7723

> <vina_pose_rank>
4

> <vina_affinity_kcal_mol>
-8.8979999999999997

> <vina_rmsd_to_crystal_angstrom>
2.7637

> <minimizedAffinity>
-8.78389

> <CNNscore>
0.2952558398

> <CNNaffinity>
7.2494907379

> <CNN_VS>
2.1404545307

> <CNNaffinity_variance>
0.1887736320

$$$$
FYN_saracatinib__vina_seed7723_ex64__pose05


 40 45  0  0  0  0  0  0  0  0999 V2000
   -9.9300   15.6620   -7.4010 C   0  0  0  0  0  0  0  0  0  0  0  0
  -10.9950   16.4370   -7.6330 C   0  0  0  0  0  0  0  0  0  0  0  0
  -11.7600   16.2690   -8.7210 C   0  0  0  0  0  0  0  0  0  0  0  0
  -11.5130   15.3040   -9.6510 C   0  0  0  0  0  0  0  0  0  0  0  0
  -10.4380   14.4980   -9.4310 C   0  0  0  0  0  0  0  0  0  0  0  0
   -9.6910   14.7110   -8.3230 C   0  0  0  0  0  0  0  0  0  0  0  0
  -12.3700   15.2460  -10.7110 C   0  0  0  0  0  0  0  0  0  0  0  0
  -13.3290   16.0870  -10.7420 N   0  0  0  0  0  0  0  0  0  0  0  0
  -13.4730   16.9430   -9.8260 C   0  0  0  0  0  0  0  0  0  0  0  0
  -12.7340   17.0740   -8.8160 N   0  0  0  0  0  0  0  0  0  0  0  0
  -12.9040   17.7660   -8.1350 H   0  0  0  0  0  0  0  0  0  0  0  0
  -12.4580   14.4910  -11.7430 N   0  0  0  0  0  0  0  0  0  0  0  0
  -11.5400   14.0300  -11.9770 H   0  0  0  0  0  0  0  0  0  0  0  0
  -13.3570   14.1330  -12.5820 C   0  0  0  0  0  0  0  0  0  0  0  0
  -14.0980   13.0130  -12.3490 C   0  0  0  0  0  0  0  0  0  0  0  0
  -13.9130   11.9990  -10.9470 Cl  0  0  0  0  0  0  0  0  0  0  0  0
  -15.0600   12.6190  -13.2060 C   0  0  0  0  0  0  0  0  0  0  0  0
  -15.3250   13.3010  -14.3290 C   0  0  0  0  0  0  0  0  0  0  0  0
  -14.6010   14.3970  -14.5710 C   0  0  0  0  0  0  0  0  0  0  0  0
  -13.6450   14.7980  -13.7240 C   0  0  0  0  0  0  0  0  0  0  0  0
  -13.1160   15.8260  -14.1540 O   0  0  0  0  0  0  0  0  0  0  0  0
  -13.6890   16.1380  -15.4220 C   0  0  0  0  0  0  0  0  0  0  0  0
  -14.6990   15.1430  -15.5450 O   0  0  0  0  0  0  0  0  0  0  0  0
   -9.1340   15.8090   -6.2910 O   0  0  0  0  0  0  0  0  0  0  0  0
   -7.7960   16.1690   -6.5380 C   0  0  0  0  0  0  0  0  0  0  0  0
   -6.9580   16.2370   -5.2500 C   0  0  0  0  0  0  0  0  0  0  0  0
   -7.7130   21.5960   -3.6460 C   0  0  0  0  0  0  0  0  0  0  0  0
   -7.8380   20.2640   -4.2130 N   0  0  0  0  0  0  0  0  0  0  0  0
   -6.7250   19.9930   -5.1060 C   0  0  0  0  0  0  0  0  0  0  0  0
   -6.7880   18.5690   -5.6770 C   0  0  0  0  0  0  0  0  0  0  0  0
   -6.8320   17.5520   -4.6310 N   0  0  0  0  0  0  0  0  0  0  0  0
   -7.9610   17.8440   -3.7610 C   0  0  0  0  0  0  0  0  0  0  0  0
   -7.8740   19.2620   -3.1640 C   0  0  0  0  0  0  0  0  0  0  0  0
  -10.0840   13.4990  -10.3190 O   0  0  0  0  0  0  0  0  0  0  0  0
   -9.9950   12.1440   -9.9490 C   0  0  0  0  0  0  0  0  0  0  0  0
  -11.0400   11.7250   -8.9140 C   0  0  0  0  0  0  0  0  0  0  0  0
  -11.1430   10.2060   -8.8190 C   0  0  0  0  0  0  0  0  0  0  0  0
  -11.4320    9.6450  -10.0760 O   0  0  0  0  0  0  0  0  0  0  0  0
  -10.3660    9.8540  -10.9620 C   0  0  0  0  0  0  0  0  0  0  0  0
  -10.2150   11.3450  -11.2440 C   0  0  0  0  0  0  0  0  0  0  0  0
 27 28  1  0
 28 29  1  0
 29 30  1  0
 30 31  1  0
 31 26  1  0
 26 25  1  0
 25 24  1  0
 24  1  1  0
  1  2  2  0
  2  3  1  0
  3  4  2  0
  4  5  1  0
  5 34  1  0
 34 35  1  0
 35 36  1  0
 36 37  1  0
 37 38  1  0
 38 39  1  0
 39 40  1  0
  5  6  2  0
  4  7  1  0
  7 12  1  0
 12 14  1  0
 14 15  2  0
 15 16  1  0
 15 17  1  0
 17 18  2  0
 18 19  1  0
 19 20  2  0
 20 21  1  0
 21 22  1  0
 22 23  1  0
  7  8  1  0
  8  9  2  0
  9 10  1  0
 31 32  1  0
 32 33  1  0
 33 28  1  0
  6  1  1  0
 20 14  1  0
 10  3  1  0
 40 35  1  0
 23 19  1  0
 12 13  1  0
 10 11  1  0
M  END
> <meeko>
{"is_sidechain": false}

> <source_group>
FYN canonical

> <source_system>
FYN_saracatinib

> <source_run>
vina_seed7723_ex64

> <source_seed>
7723

> <vina_pose_rank>
5

> <vina_affinity_kcal_mol>
-8.8089999999999993

> <vina_rmsd_to_crystal_angstrom>
1.9962

> <minimizedAffinity>
-8.90238

> <CNNscore>
0.5850305557

> <CNNaffinity>
7.3391098976

> <CNN_VS>
4.2936034203

> <CNNaffinity_variance>
0.1966915876

$$$$
FYN_saracatinib__vina_seed7723_ex64__pose06


 40 45  0  0  0  0  0  0  0  0999 V2000
  -10.1720   15.5970   -7.5820 C   0  0  0  0  0  0  0  0  0  0  0  0
  -11.2680   16.3520   -7.7190 C   0  0  0  0  0  0  0  0  0  0  0  0
  -12.0210   16.2990   -8.8270 C   0  0  0  0  0  0  0  0  0  0  0  0
  -11.7300   15.4790   -9.8750 C   0  0  0  0  0  0  0  0  0  0  0  0
  -10.6220   14.6960   -9.7560 C   0  0  0  0  0  0  0  0  0  0  0  0
   -9.8900   14.7900   -8.6220 C   0  0  0  0  0  0  0  0  0  0  0  0
  -12.5790   15.5290  -10.9420 C   0  0  0  0  0  0  0  0  0  0  0  0
  -13.5740   16.3260  -10.8690 N   0  0  0  0  0  0  0  0  0  0  0  0
  -13.7570   17.0440   -9.8470 C   0  0  0  0  0  0  0  0  0  0  0  0
  -13.0280   17.0690   -8.8210 N   0  0  0  0  0  0  0  0  0  0  0  0
  -13.2300   17.6550   -8.0560 H   0  0  0  0  0  0  0  0  0  0  0  0
  -12.6310   14.9170  -12.0670 N   0  0  0  0  0  0  0  0  0  0  0  0
  -11.7760   15.0960  -12.6560 H   0  0  0  0  0  0  0  0  0  0  0  0
  -13.4380   14.1400  -12.6870 C   0  0  0  0  0  0  0  0  0  0  0  0
  -13.8930   14.4810  -13.9270 C   0  0  0  0  0  0  0  0  0  0  0  0
  -13.4420   15.9410  -14.7610 Cl  0  0  0  0  0  0  0  0  0  0  0  0
  -14.7310   13.6780  -14.6110 C   0  0  0  0  0  0  0  0  0  0  0  0
  -15.1630   12.5150  -14.1020 C   0  0  0  0  0  0  0  0  0  0  0  0
  -14.7290   12.1730  -12.8860 C   0  0  0  0  0  0  0  0  0  0  0  0
  -13.8940   12.9640  -12.2000 C   0  0  0  0  0  0  0  0  0  0  0  0
  -13.6330   12.4450  -11.1120 O   0  0  0  0  0  0  0  0  0  0  0  0
  -14.3850   11.2380  -10.9910 C   0  0  0  0  0  0  0  0  0  0  0  0
  -15.0190   11.1540  -12.2610 O   0  0  0  0  0  0  0  0  0  0  0  0
   -9.3870   15.6260   -6.4550 O   0  0  0  0  0  0  0  0  0  0  0  0
   -8.0620   15.1800   -6.6180 C   0  0  0  0  0  0  0  0  0  0  0  0
   -7.8050   13.8360   -5.9150 C   0  0  0  0  0  0  0  0  0  0  0  0
   -7.9360    8.5320   -7.8390 C   0  0  0  0  0  0  0  0  0  0  0  0
   -7.9250    9.7350   -7.0260 N   0  0  0  0  0  0  0  0  0  0  0  0
   -6.7150   10.4980   -7.2750 C   0  0  0  0  0  0  0  0  0  0  0  0
   -6.6960   11.8120   -6.4800 C   0  0  0  0  0  0  0  0  0  0  0  0
   -7.8620   12.6450   -6.7550 N   0  0  0  0  0  0  0  0  0  0  0  0
   -9.0570   11.8580   -6.4860 C   0  0  0  0  0  0  0  0  0  0  0  0
   -9.0860   10.5580   -7.3130 C   0  0  0  0  0  0  0  0  0  0  0  0
  -10.2220   13.8410  -10.7660 O   0  0  0  0  0  0  0  0  0  0  0  0
   -9.9470   12.4780  -10.5500 C   0  0  0  0  0  0  0  0  0  0  0  0
  -10.6700   11.5490  -11.5260 C   0  0  0  0  0  0  0  0  0  0  0  0
  -10.0720   10.1460  -11.4930 C   0  0  0  0  0  0  0  0  0  0  0  0
   -8.6930   10.1820  -11.7670 O   0  0  0  0  0  0  0  0  0  0  0  0
   -8.0110   10.8610  -10.7470 C   0  0  0  0  0  0  0  0  0  0  0  0
   -8.4280   12.3270  -10.7350 C   0  0  0  0  0  0  0  0  0  0  0  0
 27 28  1  0
 28 29  1  0
 29 30  1  0
 30 31  1  0
 31 26  1  0
 26 25  1  0
 25 24  1  0
 24  1  1  0
  1  2  2  0
  2  3  1  0
  3  4  2  0
  4  5  1  0
  5 34  1  0
 34 35  1  0
 35 36  1  0
 36 37  1  0
 37 38  1  0
 38 39  1  0
 39 40  1  0
  5  6  2  0
  4  7  1  0
  7 12  1  0
 12 14  1  0
 14 15  2  0
 15 16  1  0
 15 17  1  0
 17 18  2  0
 18 19  1  0
 19 20  2  0
 20 21  1  0
 21 22  1  0
 22 23  1  0
  7  8  1  0
  8  9  2  0
  9 10  1  0
 31 32  1  0
 32 33  1  0
 33 28  1  0
  6  1  1  0
 20 14  1  0
 10  3  1  0
 40 35  1  0
 23 19  1  0
 12 13  1  0
 10 11  1  0
M  END
> <meeko>
{"is_sidechain": false}

> <source_group>
FYN canonical

> <source_system>
FYN_saracatinib

> <source_run>
vina_seed7723_ex64

> <source_seed>
7723

> <vina_pose_rank>
6

> <vina_affinity_kcal_mol>
-8.7910000000000004

> <vina_rmsd_to_crystal_angstrom>
3.9986000000000002

> <minimizedAffinity>
-8.53154

> <CNNscore>
0.7287214994

> <CNNaffinity>
7.6275558472

> <CNN_VS>
5.5583639145

> <CNNaffinity_variance>
0.1652831584

$$$$
FYN_saracatinib__vina_seed7723_ex64__pose07


 40 45  0  0  0  0  0  0  0  0999 V2000
  -11.5540   15.8150   -9.0330 C   0  0  0  0  0  0  0  0  0  0  0  0
  -12.6020   16.6130   -9.2700 C   0  0  0  0  0  0  0  0  0  0  0  0
  -13.4550   16.3700  -10.2760 C   0  0  0  0  0  0  0  0  0  0  0  0
  -13.3180   15.3040  -11.1140 C   0  0  0  0  0  0  0  0  0  0  0  0
  -12.2620   14.4740  -10.8880 C   0  0  0  0  0  0  0  0  0  0  0  0
  -11.4260   14.7650   -9.8650 C   0  0  0  0  0  0  0  0  0  0  0  0
  -14.2540   15.1800  -12.0990 C   0  0  0  0  0  0  0  0  0  0  0  0
  -15.1790   16.0580  -12.1500 N   0  0  0  0  0  0  0  0  0  0  0  0
  -15.2170   17.0090  -11.3210 C   0  0  0  0  0  0  0  0  0  0  0  0
  -14.3990   17.2080  -10.3860 N   0  0  0  0  0  0  0  0  0  0  0  0
  -14.4890   17.9730   -9.7720 H   0  0  0  0  0  0  0  0  0  0  0  0
  -14.4510   14.3280  -13.0360 N   0  0  0  0  0  0  0  0  0  0  0  0
  -14.2970   13.3370  -12.7110 H   0  0  0  0  0  0  0  0  0  0  0  0
  -14.7850   14.3380  -14.2720 C   0  0  0  0  0  0  0  0  0  0  0  0
  -14.0190   15.0090  -15.1790 C   0  0  0  0  0  0  0  0  0  0  0  0
  -12.5680   15.8800  -14.7710 Cl  0  0  0  0  0  0  0  0  0  0  0  0
  -14.3370   15.0260  -16.4880 C   0  0  0  0  0  0  0  0  0  0  0  0
  -15.4230   14.3960  -16.9570 C   0  0  0  0  0  0  0  0  0  0  0  0
  -16.1850   13.7400  -16.0770 C   0  0  0  0  0  0  0  0  0  0  0  0
  -15.8760   13.7150  -14.7750 C   0  0  0  0  0  0  0  0  0  0  0  0
  -16.7170   13.0540  -14.1620 O   0  0  0  0  0  0  0  0  0  0  0  0
  -17.7260   12.6370  -15.0810 C   0  0  0  0  0  0  0  0  0  0  0  0
  -17.2140   13.1120  -16.3200 O   0  0  0  0  0  0  0  0  0  0  0  0
  -10.6720   16.0370   -8.0050 O   0  0  0  0  0  0  0  0  0  0  0  0
  -10.3210   14.9060   -7.2440 C   0  0  0  0  0  0  0  0  0  0  0  0
   -8.8360   14.5350   -7.3930 C   0  0  0  0  0  0  0  0  0  0  0  0
   -9.2090    9.0780   -8.7870 C   0  0  0  0  0  0  0  0  0  0  0  0
   -9.4620   10.4800   -8.5050 N   0  0  0  0  0  0  0  0  0  0  0  0
   -9.1050   10.7880   -7.1310 C   0  0  0  0  0  0  0  0  0  0  0  0
   -9.2990   12.2780   -6.8130 C   0  0  0  0  0  0  0  0  0  0  0  0
   -8.5460   13.1420   -7.7170 N   0  0  0  0  0  0  0  0  0  0  0  0
   -8.9340   12.8180   -9.0820 C   0  0  0  0  0  0  0  0  0  0  0  0
   -8.7040   11.3300   -9.4060 C   0  0  0  0  0  0  0  0  0  0  0  0
  -12.0170   13.3740  -11.6880 O   0  0  0  0  0  0  0  0  0  0  0  0
  -12.0190   12.0560  -11.1960 C   0  0  0  0  0  0  0  0  0  0  0  0
  -13.4220   11.5000  -10.9490 C   0  0  0  0  0  0  0  0  0  0  0  0
  -13.3900    9.9850  -10.7720 C   0  0  0  0  0  0  0  0  0  0  0  0
  -12.7960    9.3630  -11.8860 O   0  0  0  0  0  0  0  0  0  0  0  0
  -11.4430    9.7190  -11.9780 C   0  0  0  0  0  0  0  0  0  0  0  0
  -11.3210   11.2100  -12.2730 C   0  0  0  0  0  0  0  0  0  0  0  0
 27 28  1  0
 28 29  1  0
 29 30  1  0
 30 31  1  0
 31 26  1  0
 26 25  1  0
 25 24  1  0
 24  1  1  0
  1  2  2  0
  2  3  1  0
  3  4  2  0
  4  5  1  0
  5 34  1  0
 34 35  1  0
 35 36  1  0
 36 37  1  0
 37 38  1  0
 38 39  1  0
 39 40  1  0
  5  6  2  0
  4  7  1  0
  7 12  1  0
 12 14  1  0
 14 15  2  0
 15 16  1  0
 15 17  1  0
 17 18  2  0
 18 19  1  0
 19 20  2  0
 20 21  1  0
 21 22  1  0
 22 23  1  0
  7  8  1  0
  8  9  2  0
  9 10  1  0
 31 32  1  0
 32 33  1  0
 33 28  1  0
  6  1  1  0
 20 14  1  0
 10  3  1  0
 40 35  1  0
 23 19  1  0
 12 13  1  0
 10 11  1  0
M  END
> <meeko>
{"is_sidechain": false}

> <source_group>
FYN canonical

> <source_system>
FYN_saracatinib

> <source_run>
vina_seed7723_ex64

> <source_seed>
7723

> <vina_pose_rank>
7

> <vina_affinity_kcal_mol>
-8.7699999999999996

> <vina_rmsd_to_crystal_angstrom>
4.3406000000000002

> <minimizedAffinity>
-8.65140

> <CNNscore>
0.7669944763

> <CNNaffinity>
7.8986034393

> <CNN_VS>
6.0581851006

> <CNNaffinity_variance>
0.2835013568

$$$$
FYN_saracatinib__vina_seed7723_ex64__pose08


 40 45  0  0  0  0  0  0  0  0999 V2000
  -10.4680   16.0750   -7.7200 C   0  0  0  0  0  0  0  0  0  0  0  0
  -11.5820   16.7550   -8.0190 C   0  0  0  0  0  0  0  0  0  0  0  0
  -12.3040   16.4710   -9.1120 C   0  0  0  0  0  0  0  0  0  0  0  0
  -11.9610   15.4800   -9.9820 C   0  0  0  0  0  0  0  0  0  0  0  0
  -10.8350   14.7700   -9.6950 C   0  0  0  0  0  0  0  0  0  0  0  0
  -10.1360   15.0980   -8.5840 C   0  0  0  0  0  0  0  0  0  0  0  0
  -12.7830   15.3010  -11.0560 C   0  0  0  0  0  0  0  0  0  0  0  0
  -13.8010   16.0650  -11.1550 N   0  0  0  0  0  0  0  0  0  0  0  0
  -14.0320   16.9540  -10.2900 C   0  0  0  0  0  0  0  0  0  0  0  0
  -13.3320   17.1950   -9.2730 N   0  0  0  0  0  0  0  0  0  0  0  0
  -13.5700   17.9070   -8.6350 H   0  0  0  0  0  0  0  0  0  0  0  0
  -12.7880   14.4880  -12.0470 N   0  0  0  0  0  0  0  0  0  0  0  0
  -11.8560   14.0140  -12.1760 H   0  0  0  0  0  0  0  0  0  0  0  0
  -13.6140   14.0830  -12.9380 C   0  0  0  0  0  0  0  0  0  0  0  0
  -14.3180   12.9330  -12.7390 C   0  0  0  0  0  0  0  0  0  0  0  0
  -14.1780   11.9390  -11.3170 Cl  0  0  0  0  0  0  0  0  0  0  0  0
  -15.2050   12.4880  -13.6510 C   0  0  0  0  0  0  0  0  0  0  0  0
  -15.4280   13.1480  -14.7960 C   0  0  0  0  0  0  0  0  0  0  0  0
  -14.7400   14.2740  -15.0040 C   0  0  0  0  0  0  0  0  0  0  0  0
  -13.8580   14.7250  -14.1030 C   0  0  0  0  0  0  0  0  0  0  0  0
  -13.3490   15.7720  -14.5100 O   0  0  0  0  0  0  0  0  0  0  0  0
  -13.8540   16.0470  -15.8160 C   0  0  0  0  0  0  0  0  0  0  0  0
  -14.8080   15.0060  -15.9910 O   0  0  0  0  0  0  0  0  0  0  0  0
   -9.7160   16.3400   -6.6020 O   0  0  0  0  0  0  0  0  0  0  0  0
   -8.4490   15.7270   -6.5570 C   0  0  0  0  0  0  0  0  0  0  0  0
   -8.2370   14.9150   -5.2680 C   0  0  0  0  0  0  0  0  0  0  0  0
   -6.4570    9.9750   -7.3400 C   0  0  0  0  0  0  0  0  0  0  0  0
   -6.8100   11.3680   -7.1260 N   0  0  0  0  0  0  0  0  0  0  0  0
   -8.2260   11.4860   -6.8260 C   0  0  0  0  0  0  0  0  0  0  0  0
   -8.6260   12.9390   -6.5300 C   0  0  0  0  0  0  0  0  0  0  0  0
   -7.8470   13.5200   -5.4410 N   0  0  0  0  0  0  0  0  0  0  0  0
   -6.4360   13.3960   -5.7760 C   0  0  0  0  0  0  0  0  0  0  0  0
   -6.0330   11.9320   -6.0370 C   0  0  0  0  0  0  0  0  0  0  0  0
  -10.3840   13.7550  -10.5180 O   0  0  0  0  0  0  0  0  0  0  0  0
  -10.2350   12.4260  -10.0810 C   0  0  0  0  0  0  0  0  0  0  0  0
  -11.3520   11.9630   -9.1460 C   0  0  0  0  0  0  0  0  0  0  0  0
  -11.3500   10.4450   -8.9950 C   0  0  0  0  0  0  0  0  0  0  0  0
  -11.4580    9.8170  -10.2500 O   0  0  0  0  0  0  0  0  0  0  0  0
  -10.3200   10.0790  -11.0250 C   0  0  0  0  0  0  0  0  0  0  0  0
  -10.2520   11.5660  -11.3560 C   0  0  0  0  0  0  0  0  0  0  0  0
 27 28  1  0
 28 29  1  0
 29 30  1  0
 30 31  1  0
 31 26  1  0
 26 25  1  0
 25 24  1  0
 24  1  1  0
  1  2  2  0
  2  3  1  0
  3  4  2  0
  4  5  1  0
  5 34  1  0
 34 35  1  0
 35 36  1  0
 36 37  1  0
 37 38  1  0
 38 39  1  0
 39 40  1  0
  5  6  2  0
  4  7  1  0
  7 12  1  0
 12 14  1  0
 14 15  2  0
 15 16  1  0
 15 17  1  0
 17 18  2  0
 18 19  1  0
 19 20  2  0
 20 21  1  0
 21 22  1  0
 22 23  1  0
  7  8  1  0
  8  9  2  0
  9 10  1  0
 31 32  1  0
 32 33  1  0
 33 28  1  0
  6  1  1  0
 20 14  1  0
 10  3  1  0
 40 35  1  0
 23 19  1  0
 12 13  1  0
 10 11  1  0
M  END
> <meeko>
{"is_sidechain": false}

> <source_group>
FYN canonical

> <source_system>
FYN_saracatinib

> <source_run>
vina_seed7723_ex64

> <source_seed>
7723

> <vina_pose_rank>
8

> <vina_affinity_kcal_mol>
-8.7409999999999997

> <vina_rmsd_to_crystal_angstrom>
2.9154

> <minimizedAffinity>
-8.62082

> <CNNscore>
0.4251854122

> <CNNaffinity>
7.4181342125

> <CNN_VS>
3.1540825367

> <CNNaffinity_variance>
0.1991866827

$$$$
FYN_saracatinib__vina_seed7723_ex64__pose09


 40 45  0  0  0  0  0  0  0  0999 V2000
  -10.0690   15.7370   -7.3280 C   0  0  0  0  0  0  0  0  0  0  0  0
  -11.1520   16.4870   -7.5630 C   0  0  0  0  0  0  0  0  0  0  0  0
  -11.8730   16.3440   -8.6840 C   0  0  0  0  0  0  0  0  0  0  0  0
  -11.5620   15.4330   -9.6470 C   0  0  0  0  0  0  0  0  0  0  0  0
  -10.4670   14.6530   -9.4270 C   0  0  0  0  0  0  0  0  0  0  0  0
   -9.7670   14.8380   -8.2840 C   0  0  0  0  0  0  0  0  0  0  0  0
  -12.3790   15.3970  -10.7390 C   0  0  0  0  0  0  0  0  0  0  0  0
  -13.3650   16.2070  -10.7670 N   0  0  0  0  0  0  0  0  0  0  0  0
  -13.5690   17.0140   -9.8180 C   0  0  0  0  0  0  0  0  0  0  0  0
  -12.8700   17.1220   -8.7770 N   0  0  0  0  0  0  0  0  0  0  0  0
  -13.0860   17.7750   -8.0720 H   0  0  0  0  0  0  0  0  0  0  0  0
  -12.4060   14.6890  -11.8070 N   0  0  0  0  0  0  0  0  0  0  0  0
  -11.4770   14.6840  -12.3040 H   0  0  0  0  0  0  0  0  0  0  0  0
  -13.2530   13.9760  -12.4520 C   0  0  0  0  0  0  0  0  0  0  0  0
  -13.7240   14.4040  -13.6580 C   0  0  0  0  0  0  0  0  0  0  0  0
  -13.2420   15.8950  -14.4170 Cl  0  0  0  0  0  0  0  0  0  0  0  0
  -14.6040   13.6700  -14.3670 C   0  0  0  0  0  0  0  0  0  0  0  0
  -15.0640   12.4950  -13.9150 C   0  0  0  0  0  0  0  0  0  0  0  0
  -14.6150   12.0680  -12.7320 C   0  0  0  0  0  0  0  0  0  0  0  0
  -13.7380   12.7890  -12.0220 C   0  0  0  0  0  0  0  0  0  0  0  0
  -13.4710   12.2000  -10.9730 O   0  0  0  0  0  0  0  0  0  0  0  0
  -14.2600   11.0130  -10.9030 C   0  0  0  0  0  0  0  0  0  0  0  0
  -14.9250   11.0240  -12.1600 O   0  0  0  0  0  0  0  0  0  0  0  0
   -9.3180   15.8570   -6.1850 O   0  0  0  0  0  0  0  0  0  0  0  0
   -7.9600   16.1770   -6.3740 C   0  0  0  0  0  0  0  0  0  0  0  0
   -7.1890   16.2740   -5.0470 C   0  0  0  0  0  0  0  0  0  0  0  0
   -7.5320   21.7760   -3.8350 C   0  0  0  0  0  0  0  0  0  0  0  0
   -7.7630   20.4180   -4.2960 N   0  0  0  0  0  0  0  0  0  0  0  0
   -6.6990   20.0050   -5.1930 C   0  0  0  0  0  0  0  0  0  0  0  0
   -6.8740   18.5500   -5.6530 C   0  0  0  0  0  0  0  0  0  0  0  0
   -6.9560   17.6190   -4.5320 N   0  0  0  0  0  0  0  0  0  0  0  0
   -8.0370   18.0530   -3.6590 C   0  0  0  0  0  0  0  0  0  0  0  0
   -7.8370   19.5010   -3.1740 C   0  0  0  0  0  0  0  0  0  0  0  0
  -10.0490   13.7080  -10.3460 O   0  0  0  0  0  0  0  0  0  0  0  0
   -9.8460   12.3560  -10.0130 C   0  0  0  0  0  0  0  0  0  0  0  0
  -10.8350   11.8280   -8.9730 C   0  0  0  0  0  0  0  0  0  0  0  0
  -10.8130   10.3040   -8.9180 C   0  0  0  0  0  0  0  0  0  0  0  0
  -11.0790    9.7530  -10.1840 O   0  0  0  0  0  0  0  0  0  0  0  0
  -10.0480   10.0700  -11.0800 C   0  0  0  0  0  0  0  0  0  0  0  0
  -10.0240   11.5750  -11.3260 C   0  0  0  0  0  0  0  0  0  0  0  0
 27 28  1  0
 28 29  1  0
 29 30  1  0
 30 31  1  0
 31 26  1  0
 26 25  1  0
 25 24  1  0
 24  1  1  0
  1  2  2  0
  2  3  1  0
  3  4  2  0
  4  5  1  0
  5 34  1  0
 34 35  1  0
 35 36  1  0
 36 37  1  0
 37 38  1  0
 38 39  1  0
 39 40  1  0
  5  6  2  0
  4  7  1  0
  7 12  1  0
 12 14  1  0
 14 15  2  0
 15 16  1  0
 15 17  1  0
 17 18  2  0
 18 19  1  0
 19 20  2  0
 20 21  1  0
 21 22  1  0
 22 23  1  0
  7  8  1  0
  8  9  2  0
  9 10  1  0
 31 32  1  0
 32 33  1  0
 33 28  1  0
  6  1  1  0
 20 14  1  0
 10  3  1  0
 40 35  1  0
 23 19  1  0
 12 13  1  0
 10 11  1  0
M  END
> <meeko>
{"is_sidechain": false}

> <source_group>
FYN canonical

> <source_system>
FYN_saracatinib

> <source_run>
vina_seed7723_ex64

> <source_seed>
7723

> <vina_pose_rank>
9

> <vina_affinity_kcal_mol>
-8.7210000000000001

> <vina_rmsd_to_crystal_angstrom>
2.8147000000000002

> <minimizedAffinity>
-8.70269

> <CNNscore>
0.8466807604

> <CNNaffinity>
7.8505992889

> <CNN_VS>
6.6469511986

> <CNNaffinity_variance>
0.2253812999

$$$$
FYN_saracatinib__vina_seed7723_ex64__pose10


 40 45  0  0  0  0  0  0  0  0999 V2000
  -10.7240   13.1190   -7.7470 C   0  0  0  0  0  0  0  0  0  0  0  0
  -11.2210   14.3500   -7.9130 C   0  0  0  0  0  0  0  0  0  0  0  0
  -11.7770   14.7310   -9.0730 C   0  0  0  0  0  0  0  0  0  0  0  0
  -11.8770   13.9000  -10.1470 C   0  0  0  0  0  0  0  0  0  0  0  0
  -11.3840   12.6390  -10.0000 C   0  0  0  0  0  0  0  0  0  0  0  0
  -10.8270   12.3030   -8.8140 C   0  0  0  0  0  0  0  0  0  0  0  0
  -12.4610   14.4190  -11.2660 C   0  0  0  0  0  0  0  0  0  0  0  0
  -12.8690   15.6270  -11.2130 N   0  0  0  0  0  0  0  0  0  0  0  0
  -12.7310   16.3140  -10.1640 C   0  0  0  0  0  0  0  0  0  0  0  0
  -12.2040   15.9240   -9.0900 N   0  0  0  0  0  0  0  0  0  0  0  0
  -12.1270   16.5140   -8.3050 H   0  0  0  0  0  0  0  0  0  0  0  0
  -12.7300   13.9500  -12.4280 N   0  0  0  0  0  0  0  0  0  0  0  0
  -11.8890   13.5030  -12.8800 H   0  0  0  0  0  0  0  0  0  0  0  0
  -13.7430   13.8690  -13.2070 C   0  0  0  0  0  0  0  0  0  0  0  0
  -14.6960   12.9190  -12.9870 C   0  0  0  0  0  0  0  0  0  0  0  0
  -14.6410   11.7700  -11.6810 Cl  0  0  0  0  0  0  0  0  0  0  0  0
  -15.7810   12.8170  -13.7800 C   0  0  0  0  0  0  0  0  0  0  0  0
  -15.9670   13.6360  -14.8250 C   0  0  0  0  0  0  0  0  0  0  0  0
  -15.0370   14.5680  -15.0540 C   0  0  0  0  0  0  0  0  0  0  0  0
  -13.9570   14.6780  -14.2700 C   0  0  0  0  0  0  0  0  0  0  0  0
  -13.2460   15.6000  -14.6720 O   0  0  0  0  0  0  0  0  0  0  0  0
  -13.8250   16.1390  -15.8600 C   0  0  0  0  0  0  0  0  0  0  0  0
  -15.0360   15.3990  -15.9610 O   0  0  0  0  0  0  0  0  0  0  0  0
  -10.1580   12.7000   -6.5680 O   0  0  0  0  0  0  0  0  0  0  0  0
   -8.8210   13.0890   -6.3580 C   0  0  0  0  0  0  0  0  0  0  0  0
   -7.8550   11.8920   -6.3540 C   0  0  0  0  0  0  0  0  0  0  0  0
   -7.0840    7.7090  -10.0650 C   0  0  0  0  0  0  0  0  0  0  0  0
   -7.1110    8.5620   -8.8900 N   0  0  0  0  0  0  0  0  0  0  0  0
   -6.4500    9.8240   -9.1700 C   0  0  0  0  0  0  0  0  0  0  0  0
   -6.5130   10.7800   -7.9700 C   0  0  0  0  0  0  0  0  0  0  0  0
   -7.8830   11.0340   -7.5340 N   0  0  0  0  0  0  0  0  0  0  0  0
   -8.5150    9.7540   -7.2500 C   0  0  0  0  0  0  0  0  0  0  0  0
   -8.4780    8.8130   -8.4700 C   0  0  0  0  0  0  0  0  0  0  0  0
  -11.4170   11.7190  -11.0310 O   0  0  0  0  0  0  0  0  0  0  0  0
  -10.8480   10.4360  -10.9290 C   0  0  0  0  0  0  0  0  0  0  0  0
  -11.8800    9.3260  -10.7250 C   0  0  0  0  0  0  0  0  0  0  0  0
  -11.2680    7.9530  -10.9830 C   0  0  0  0  0  0  0  0  0  0  0  0
  -10.7130    7.8860  -12.2740 O   0  0  0  0  0  0  0  0  0  0  0  0
   -9.6240    8.7630  -12.3820 C   0  0  0  0  0  0  0  0  0  0  0  0
  -10.1090   10.2040  -12.2570 C   0  0  0  0  0  0  0  0  0  0  0  0
 27 28  1  0
 28 29  1  0
 29 30  1  0
 30 31  1  0
 31 26  1  0
 26 25  1  0
 25 24  1  0
 24  1  1  0
  1  2  2  0
  2  3  1  0
  3  4  2  0
  4  5  1  0
  5 34  1  0
 34 35  1  0
 35 36  1  0
 36 37  1  0
 37 38  1  0
 38 39  1  0
 39 40  1  0
  5  6  2  0
  4  7  1  0
  7 12  1  0
 12 14  1  0
 14 15  2  0
 15 16  1  0
 15 17  1  0
 17 18  2  0
 18 19  1  0
 19 20  2  0
 20 21  1  0
 21 22  1  0
 22 23  1  0
  7  8  1  0
  8  9  2  0
  9 10  1  0
 31 32  1  0
 32 33  1  0
 33 28  1  0
  6  1  1  0
 20 14  1  0
 10  3  1  0
 40 35  1  0
 23 19  1  0
 12 13  1  0
 10 11  1  0
M  END
> <meeko>
{"is_sidechain": false}

> <source_group>
FYN canonical

> <source_system>
FYN_saracatinib

> <source_run>
vina_seed7723_ex64

> <source_seed>
7723

> <vina_pose_rank>
10

> <vina_affinity_kcal_mol>
-8.5359999999999996

> <vina_rmsd_to_crystal_angstrom>
4.6567999999999996

> <minimizedAffinity>
-8.31552

> <CNNscore>
0.3314561844

> <CNNaffinity>
7.2394676208

> <CNN_VS>
2.3995664120

> <CNNaffinity_variance>
0.1392040849

$$$$
