BACE1_verubecestat__canonical_obabel_redock_seed20260825_ex32__pose01
     RDKit          3D

 45 47  0  0  0  0  0  0  0  0999 V2000
   23.0970   11.6520   25.1420 C   0  0  0  0  0  0  0  0  0  0  0  0
   22.4930   11.1040   23.9110 N   0  0  0  0  0  0  0  0  0  0  0  0
   22.4340    9.7200   23.6330 C   0  0  0  0  0  0  0  0  0  0  0  0
   22.8460    8.9270   24.6700 N   0  0  0  0  0  0  0  0  0  0  0  0
   22.0060    9.2270   22.5120 N   0  0  0  0  0  0  0  0  0  0  0  0
   21.6580   10.0840   21.3790 C   0  0  2  0  0  0  0  0  0  0  0  0
   20.7930    9.1680   20.5090 C   0  0  0  0  0  0  0  0  0  0  0  0
   22.8840   10.5030   20.5830 C   0  0  0  0  0  0  0  0  0  0  0  0
   24.1650   10.1190   20.9770 C   0  0  0  0  0  0  0  0  0  0  0  0
   25.2920   10.4850   20.2770 C   0  0  0  0  0  0  0  0  0  0  0  0
   26.5180   10.0310   20.7790 N   0  0  0  0  0  0  0  0  0  0  0  0
   27.6580   10.7660   21.0520 C   0  0  0  0  0  0  0  0  0  0  0  0
   27.8200   11.9460   20.7700 O   0  0  0  0  0  0  0  0  0  0  0  0
   28.7260   10.0330   21.7760 C   0  0  0  0  0  0  0  0  0  0  0  0
   28.6620    8.6550   21.8920 C   0  0  0  0  0  0  0  0  0  0  0  0
   29.6830    8.0240   22.5790 C   0  0  0  0  0  0  0  0  0  0  0  0
   30.7160    8.7690   23.1140 C   0  0  0  0  0  0  0  0  0  0  0  0
   31.7240    8.2000   23.7970 F   0  0  0  0  0  0  0  0  0  0  0  0
   30.6880   10.1350   22.9510 C   0  0  0  0  0  0  0  0  0  0  0  0
   29.7080   10.7770   22.2950 N   0  0  0  0  0  0  0  0  0  0  0  0
   25.1850   11.2470   19.1200 C   0  0  0  0  0  0  0  0  0  0  0  0
   23.9210   11.6400   18.7160 C   0  0  0  0  0  0  0  0  0  0  0  0
   22.8020   11.2920   19.4450 C   0  0  0  0  0  0  0  0  0  0  0  0
   21.5760   11.7150   19.0430 F   0  0  0  0  0  0  0  0  0  0  0  0
   20.7740   11.2210   21.8400 C   0  0  0  0  0  0  0  0  0  0  0  0
   21.6470   12.2730   22.9730 S   0  0  0  0  0  0  0  0  0  0  0  0
   20.6450   12.8730   23.8360 O   0  0  0  0  0  0  0  0  0  0  0  0
   22.6860   13.0050   22.3200 O   0  0  0  0  0  0  0  0  0  0  0  0
   22.6067   11.2071   26.0205 H   0  0  0  0  0  0  0  0  0  0  0  0
   24.1706   11.4134   25.1613 H   0  0  0  0  0  0  0  0  0  0  0  0
   22.9636   12.7437   25.1613 H   0  0  0  0  0  0  0  0  0  0  0  0
   22.8410    7.9470   24.5720 H   0  0  0  0  0  0  0  0  0  0  0  0
   23.1480    9.3360   25.5130 H   0  0  0  0  0  0  0  0  0  0  0  0
   20.1812    8.5202   21.1540 H   0  0  0  0  0  0  0  0  0  0  0  0
   20.1351    9.7795   19.8740 H   0  0  0  0  0  0  0  0  0  0  0  0
   21.4411    8.5462   19.8740 H   0  0  0  0  0  0  0  0  0  0  0  0
   24.2791    9.5012   21.8799 H   0  0  0  0  0  0  0  0  0  0  0  0
   26.5760    9.0650   20.9620 H   0  0  0  0  0  0  0  0  0  0  0  0
   27.8303    8.0834   21.4542 H   0  0  0  0  0  0  0  0  0  0  0  0
   29.6726    6.9306   22.6992 H   0  0  0  0  0  0  0  0  0  0  0  0
   31.5083   10.7300   23.3789 H   0  0  0  0  0  0  0  0  0  0  0  0
   26.0778   11.5293   18.5427 H   0  0  0  0  0  0  0  0  0  0  0  0
   23.8065   12.2386   17.8003 H   0  0  0  0  0  0  0  0  0  0  0  0
   20.4604   11.8119   20.9667 H   0  0  0  0  0  0  0  0  0  0  0  0
   19.8952   10.8014   22.3516 H   0  0  0  0  0  0  0  0  0  0  0  0
  1  2  1  0
  2  3  1  0
  3  4  1  0
  3  5  2  0
  5  6  1  0
  6  7  1  6
  6  8  1  0
  8  9  2  0
  9 10  1  0
 10 11  1  0
 11 12  1  0
 12 13  2  0
 12 14  1  0
 14 15  2  0
 15 16  1  0
 16 17  2  0
 17 18  1  0
 17 19  1  0
 19 20  2  0
 10 21  2  0
 21 22  1  0
 22 23  2  0
 23 24  1  0
  6 25  1  0
 25 26  1  0
 26 27  2  0
 26 28  2  0
 26  2  1  0
 23  8  1  0
 20 14  1  0
  1 29  1  0
  1 30  1  0
  1 31  1  0
  4 32  1  0
  4 33  1  0
  7 34  1  0
  7 35  1  0
  7 36  1  0
  9 37  1  0
 11 38  1  0
 15 39  1  0
 16 40  1  0
 19 41  1  0
 21 42  1  0
 22 43  1  0
 25 44  1  0
 25 45  1  0
M  END
>  <meeko>  (1)
{"is_sidechain": false}

>  <source_group>  (1)
BACE1 canonical

>  <source_system>  (1)
BACE1_verubecestat

>  <source_run>  (1)
canonical_obabel_redock_seed20260825_ex32

>  <source_seed>  (1)
20260825

>  <vina_pose_rank>  (1)
1

>  <vina_affinity_kcal_mol>  (1)
-9.5359999999999996

>  <vina_rmsd_to_crystal_angstrom>  (1)
0.94569999999999999

$$$$
BACE1_verubecestat__canonical_obabel_redock_seed20260825_ex32__pose02
     RDKit          3D

 45 47  0  0  0  0  0  0  0  0999 V2000
   16.9440   14.8480   25.2970 C   0  0  0  0  0  0  0  0  0  0  0  0
   18.0220   14.4440   26.2210 N   0  0  0  0  0  0  0  0  0  0  0  0
   19.2180   15.1800   26.3780 C   0  0  0  0  0  0  0  0  0  0  0  0
   19.2250   16.3770   25.7140 N   0  0  0  0  0  0  0  0  0  0  0  0
   20.2190   14.7840   27.1020 N   0  0  0  0  0  0  0  0  0  0  0  0
   20.2390   13.4630   27.7290 C   0  0  2  0  0  0  0  0  0  0  0  0
   21.3090   13.6140   28.8140 C   0  0  0  0  0  0  0  0  0  0  0  0
   20.6740   12.3770   26.7580 C   0  0  0  0  0  0  0  0  0  0  0  0
   21.0740   12.6900   25.4600 C   0  0  0  0  0  0  0  0  0  0  0  0
   21.4700   11.7280   24.5590 C   0  0  0  0  0  0  0  0  0  0  0  0
   21.8500   12.1770   23.2870 N   0  0  0  0  0  0  0  0  0  0  0  0
   23.1210   12.4780   22.8290 C   0  0  0  0  0  0  0  0  0  0  0  0
   24.1270   12.5230   23.5240 O   0  0  0  0  0  0  0  0  0  0  0  0
   23.2260   12.7260   21.3710 C   0  0  0  0  0  0  0  0  0  0  0  0
   22.0830   12.7560   20.5910 C   0  0  0  0  0  0  0  0  0  0  0  0
   22.2390   12.9890   19.2360 C   0  0  0  0  0  0  0  0  0  0  0  0
   23.5030   13.1830   18.7130 C   0  0  0  0  0  0  0  0  0  0  0  0
   23.7050   13.4030   17.4020 F   0  0  0  0  0  0  0  0  0  0  0  0
   24.5800   13.1280   19.5680 C   0  0  0  0  0  0  0  0  0  0  0  0
   24.4600   12.8980   20.8860 N   0  0  0  0  0  0  0  0  0  0  0  0
   21.5050   10.3890   24.9290 C   0  0  0  0  0  0  0  0  0  0  0  0
   21.1080   10.0590   26.2130 C   0  0  0  0  0  0  0  0  0  0  0  0
   20.6820   11.0320   27.0960 C   0  0  0  0  0  0  0  0  0  0  0  0
   20.2700   10.6790   28.3400 F   0  0  0  0  0  0  0  0  0  0  0  0
   18.9260   13.2040   28.4350 C   0  0  0  0  0  0  0  0  0  0  0  0
   17.5880   13.1500   27.2700 S   0  0  0  0  0  0  0  0  0  0  0  0
   16.3960   13.5610   27.9900 O   0  0  0  0  0  0  0  0  0  0  0  0
   17.6630   11.9930   26.4340 O   0  0  0  0  0  0  0  0  0  0  0  0
   16.0684   15.1762   25.8763 H   0  0  0  0  0  0  0  0  0  0  0  0
   17.2954   15.6755   24.6631 H   0  0  0  0  0  0  0  0  0  0  0  0
   16.6650   13.9934   24.6631 H   0  0  0  0  0  0  0  0  0  0  0  0
   20.0150   16.9620   25.7630 H   0  0  0  0  0  0  0  0  0  0  0  0
   18.4390   16.6530   25.1880 H   0  0  0  0  0  0  0  0  0  0  0  0
   20.8376   13.5475   29.8056 H   0  0  0  0  0  0  0  0  0  0  0  0
   22.0545   12.8122   28.7079 H   0  0  0  0  0  0  0  0  0  0  0  0
   21.8035   14.5908   28.7079 H   0  0  0  0  0  0  0  0  0  0  0  0
   21.0731   13.7438   25.1444 H   0  0  0  0  0  0  0  0  0  0  0  0
   21.1200   12.2910   22.6370 H   0  0  0  0  0  0  0  0  0  0  0  0
   21.0874   12.6004   21.0320 H   0  0  0  0  0  0  0  0  0  0  0  0
   21.3589   13.0197   18.5769 H   0  0  0  0  0  0  0  0  0  0  0  0
   25.5871   13.2796   19.1523 H   0  0  0  0  0  0  0  0  0  0  0  0
   21.8383    9.6146   24.2225 H   0  0  0  0  0  0  0  0  0  0  0  0
   21.1320    9.0074   26.5348 H   0  0  0  0  0  0  0  0  0  0  0  0
   18.9839   12.2410   28.9635 H   0  0  0  0  0  0  0  0  0  0  0  0
   18.7410   14.0202   29.1488 H   0  0  0  0  0  0  0  0  0  0  0  0
  1  2  1  0
  2  3  1  0
  3  4  1  0
  3  5  2  0
  5  6  1  0
  6  7  1  1
  6  8  1  0
  8  9  2  0
  9 10  1  0
 10 11  1  0
 11 12  1  0
 12 13  2  0
 12 14  1  0
 14 15  2  0
 15 16  1  0
 16 17  2  0
 17 18  1  0
 17 19  1  0
 19 20  2  0
 10 21  2  0
 21 22  1  0
 22 23  2  0
 23 24  1  0
  6 25  1  0
 25 26  1  0
 26 27  2  0
 26 28  2  0
 26  2  1  0
 23  8  1  0
 20 14  1  0
  1 29  1  0
  1 30  1  0
  1 31  1  0
  4 32  1  0
  4 33  1  0
  7 34  1  0
  7 35  1  0
  7 36  1  0
  9 37  1  0
 11 38  1  0
 15 39  1  0
 16 40  1  0
 19 41  1  0
 21 42  1  0
 22 43  1  0
 25 44  1  0
 25 45  1  0
M  END
>  <meeko>  (2)
{"is_sidechain": false}

>  <source_group>  (2)
BACE1 canonical

>  <source_system>  (2)
BACE1_verubecestat

>  <source_run>  (2)
canonical_obabel_redock_seed20260825_ex32

>  <source_seed>  (2)
20260825

>  <vina_pose_rank>  (2)
2

>  <vina_affinity_kcal_mol>  (2)
-8.5619999999999994

>  <vina_rmsd_to_crystal_angstrom>  (2)
7.3419999999999996

$$$$
BACE1_verubecestat__canonical_obabel_redock_seed20260825_ex32__pose03
     RDKit          3D

 45 47  0  0  0  0  0  0  0  0999 V2000
   27.8250   11.9840   22.7560 C   0  0  0  0  0  0  0  0  0  0  0  0
   27.0620   12.3950   21.5610 N   0  0  0  0  0  0  0  0  0  0  0  0
   26.5730   13.7070   21.3740 C   0  0  0  0  0  0  0  0  0  0  0  0
   26.9980   14.5990   22.3210 N   0  0  0  0  0  0  0  0  0  0  0  0
   25.8100   14.0590   20.3850 N   0  0  0  0  0  0  0  0  0  0  0  0
   25.2860   13.0800   19.4340 C   0  0  2  0  0  0  0  0  0  0  0  0
   24.8770   13.9470   18.2400 C   0  0  0  0  0  0  0  0  0  0  0  0
   24.0520   12.3690   19.9690 C   0  0  0  0  0  0  0  0  0  0  0  0
   23.5820   12.6140   21.2580 C   0  0  0  0  0  0  0  0  0  0  0  0
   22.4710   11.9830   21.7690 C   0  0  0  0  0  0  0  0  0  0  0  0
   22.1020   12.3210   23.0770 N   0  0  0  0  0  0  0  0  0  0  0  0
   22.3680   11.6330   24.2480 C   0  0  0  0  0  0  0  0  0  0  0  0
   22.8720   10.5200   24.3110 O   0  0  0  0  0  0  0  0  0  0  0  0
   22.0280   12.3550   25.4980 C   0  0  0  0  0  0  0  0  0  0  0  0
   20.7260   12.7630   25.7280 C   0  0  0  0  0  0  0  0  0  0  0  0
   20.4660   13.4350   26.9100 C   0  0  0  0  0  0  0  0  0  0  0  0
   21.4900   13.6700   27.8070 C   0  0  0  0  0  0  0  0  0  0  0  0
   21.2870   14.3260   28.9620 F   0  0  0  0  0  0  0  0  0  0  0  0
   22.7540   13.2310   27.4860 C   0  0  0  0  0  0  0  0  0  0  0  0
   23.0380   12.5820   26.3440 N   0  0  0  0  0  0  0  0  0  0  0  0
   21.7560   11.0790   20.9920 C   0  0  0  0  0  0  0  0  0  0  0  0
   22.2100   10.8210   19.7110 C   0  0  0  0  0  0  0  0  0  0  0  0
   23.3450   11.4380   19.2230 C   0  0  0  0  0  0  0  0  0  0  0  0
   23.7870   11.1440   17.9730 F   0  0  0  0  0  0  0  0  0  0  0  0
   26.3960   12.1690   18.9610 C   0  0  0  0  0  0  0  0  0  0  0  0
   27.0410   11.2130   20.3100 S   0  0  0  0  0  0  0  0  0  0  0  0
   28.4220   10.9100   19.9810 O   0  0  0  0  0  0  0  0  0  0  0  0
   26.0940   10.2450   20.7700 O   0  0  0  0  0  0  0  0  0  0  0  0
   27.2754   12.2801   23.6617 H   0  0  0  0  0  0  0  0  0  0  0  0
   27.9582   10.8921   22.7484 H   0  0  0  0  0  0  0  0  0  0  0  0
   28.8100   12.4736   22.7484 H   0  0  0  0  0  0  0  0  0  0  0  0
   26.7110   15.5400   22.2760 H   0  0  0  0  0  0  0  0  0  0  0  0
   27.5920   14.3000   23.0480 H   0  0  0  0  0  0  0  0  0  0  0  0
   24.4340   14.8860   18.6034 H   0  0  0  0  0  0  0  0  0  0  0  0
   25.7639   14.1721   17.6294 H   0  0  0  0  0  0  0  0  0  0  0  0
   24.1393   13.4057   17.6294 H   0  0  0  0  0  0  0  0  0  0  0  0
   24.1183   13.3376   21.8894 H   0  0  0  0  0  0  0  0  0  0  0  0
   21.5890   13.1560   23.1760 H   0  0  0  0  0  0  0  0  0  0  0  0
   19.9275   12.5609   24.9989 H   0  0  0  0  0  0  0  0  0  0  0  0
   19.4463   13.7811   27.1345 H   0  0  0  0  0  0  0  0  0  0  0  0
   23.5708   13.4203   28.1980 H   0  0  0  0  0  0  0  0  0  0  0  0
   20.8557   10.5834   21.3842 H   0  0  0  0  0  0  0  0  0  0  0  0
   21.6594   10.1147   19.0723 H   0  0  0  0  0  0  0  0  0  0  0  0
   26.0015   11.4883   18.1922 H   0  0  0  0  0  0  0  0  0  0  0  0
   27.2065   12.7856   18.5453 H   0  0  0  0  0  0  0  0  0  0  0  0
  1  2  1  0
  2  3  1  0
  3  4  1  0
  3  5  2  0
  5  6  1  0
  6  7  1  6
  6  8  1  0
  8  9  2  0
  9 10  1  0
 10 11  1  0
 11 12  1  0
 12 13  2  0
 12 14  1  0
 14 15  2  0
 15 16  1  0
 16 17  2  0
 17 18  1  0
 17 19  1  0
 19 20  2  0
 10 21  2  0
 21 22  1  0
 22 23  2  0
 23 24  1  0
  6 25  1  0
 25 26  1  0
 26 27  2  0
 26 28  2  0
 26  2  1  0
 23  8  1  0
 20 14  1  0
  1 29  1  0
  1 30  1  0
  1 31  1  0
  4 32  1  0
  4 33  1  0
  7 34  1  0
  7 35  1  0
  7 36  1  0
  9 37  1  0
 11 38  1  0
 15 39  1  0
 16 40  1  0
 19 41  1  0
 21 42  1  0
 22 43  1  0
 25 44  1  0
 25 45  1  0
M  END
>  <meeko>  (3)
{"is_sidechain": false}

>  <source_group>  (3)
BACE1 canonical

>  <source_system>  (3)
BACE1_verubecestat

>  <source_run>  (3)
canonical_obabel_redock_seed20260825_ex32

>  <source_seed>  (3)
20260825

>  <vina_pose_rank>  (3)
3

>  <vina_affinity_kcal_mol>  (3)
-8.3719999999999999

>  <vina_rmsd_to_crystal_angstrom>  (3)
7.0761000000000003

$$$$
BACE1_verubecestat__canonical_obabel_redock_seed20260825_ex32__pose04
     RDKit          3D

 45 47  0  0  0  0  0  0  0  0999 V2000
   26.9640   11.4800   21.6100 C   0  0  0  0  0  0  0  0  0  0  0  0
   25.7400   11.8550   20.8750 N   0  0  0  0  0  0  0  0  0  0  0  0
   25.1870   13.1550   20.9120 C   0  0  0  0  0  0  0  0  0  0  0  0
   25.9680   14.0720   21.5640 N   0  0  0  0  0  0  0  0  0  0  0  0
   24.0560   13.4740   20.3630 N   0  0  0  0  0  0  0  0  0  0  0  0
   23.1870   12.4690   19.7530 C   0  0  2  0  0  0  0  0  0  0  0  0
   22.2700   13.3060   18.8570 C   0  0  0  0  0  0  0  0  0  0  0  0
   22.3380   11.7470   20.7870 C   0  0  0  0  0  0  0  0  0  0  0  0
   22.3220   12.1570   22.1200 C   0  0  0  0  0  0  0  0  0  0  0  0
   21.5650   11.5200   23.0770 C   0  0  0  0  0  0  0  0  0  0  0  0
   21.6360   12.0340   24.3780 N   0  0  0  0  0  0  0  0  0  0  0  0
   20.6650   12.7240   25.0820 C   0  0  0  0  0  0  0  0  0  0  0  0
   19.6030   13.1150   24.6170 O   0  0  0  0  0  0  0  0  0  0  0  0
   20.9650   12.9520   26.5170 C   0  0  0  0  0  0  0  0  0  0  0  0
   21.4740   11.9220   27.2890 C   0  0  0  0  0  0  0  0  0  0  0  0
   21.7340   12.1900   28.6210 C   0  0  0  0  0  0  0  0  0  0  0  0
   21.4870   13.4500   29.1300 C   0  0  0  0  0  0  0  0  0  0  0  0
   21.7140   13.7540   30.4200 F   0  0  0  0  0  0  0  0  0  0  0  0
   20.9740   14.4080   28.2850 C   0  0  0  0  0  0  0  0  0  0  0  0
   20.7070   14.1760   26.9890 N   0  0  0  0  0  0  0  0  0  0  0  0
   20.7590   10.4410   22.7340 C   0  0  0  0  0  0  0  0  0  0  0  0
   20.7650   10.0180   21.4170 C   0  0  0  0  0  0  0  0  0  0  0  0
   21.5550   10.6470   20.4740 C   0  0  0  0  0  0  0  0  0  0  0  0
   21.5650   10.1930   19.1940 F   0  0  0  0  0  0  0  0  0  0  0  0
   23.9940   11.5680   18.8440 C   0  0  0  0  0  0  0  0  0  0  0  0
   25.1930   10.6490   19.7760 S   0  0  0  0  0  0  0  0  0  0  0  0
   26.2910   10.3640   18.8690 O   0  0  0  0  0  0  0  0  0  0  0  0
   24.5720    9.6740   20.6180 O   0  0  0  0  0  0  0  0  0  0  0  0
   26.7743   11.5381   22.6920 H   0  0  0  0  0  0  0  0  0  0  0  0
   27.2518   10.4525   21.3429 H   0  0  0  0  0  0  0  0  0  0  0  0
   27.7780   12.1700   21.3429 H   0  0  0  0  0  0  0  0  0  0  0  0
   25.6680   15.0060   21.6420 H   0  0  0  0  0  0  0  0  0  0  0  0
   26.8300   13.7970   21.9530 H   0  0  0  0  0  0  0  0  0  0  0  0
   21.6021   13.9156   19.4834 H   0  0  0  0  0  0  0  0  0  0  0  0
   22.8800   13.9652   18.2219 H   0  0  0  0  0  0  0  0  0  0  0  0
   21.6690   12.6385   18.2219 H   0  0  0  0  0  0  0  0  0  0  0  0
   22.9361   13.0200   22.4171 H   0  0  0  0  0  0  0  0  0  0  0  0
   22.4870   11.8860   24.8520 H   0  0  0  0  0  0  0  0  0  0  0  0
   21.6646   10.9275   26.8594 H   0  0  0  0  0  0  0  0  0  0  0  0
   22.1366   11.4012   29.2735 H   0  0  0  0  0  0  0  0  0  0  0  0
   20.7732   15.4108   28.6901 H   0  0  0  0  0  0  0  0  0  0  0  0
   20.1348    9.9383   23.4874 H   0  0  0  0  0  0  0  0  0  0  0  0
   20.1325    9.1697   21.1165 H   0  0  0  0  0  0  0  0  0  0  0  0
   23.3159   10.8662   18.3364 H   0  0  0  0  0  0  0  0  0  0  0  0
   24.5210   12.1904   18.1059 H   0  0  0  0  0  0  0  0  0  0  0  0
  1  2  1  0
  2  3  1  0
  3  4  1  0
  3  5  2  0
  5  6  1  0
  6  7  1  6
  6  8  1  0
  8  9  2  0
  9 10  1  0
 10 11  1  0
 11 12  1  0
 12 13  2  0
 12 14  1  0
 14 15  2  0
 15 16  1  0
 16 17  2  0
 17 18  1  0
 17 19  1  0
 19 20  2  0
 10 21  2  0
 21 22  1  0
 22 23  2  0
 23 24  1  0
  6 25  1  0
 25 26  1  0
 26 27  2  0
 26 28  2  0
 26  2  1  0
 23  8  1  0
 20 14  1  0
  1 29  1  0
  1 30  1  0
  1 31  1  0
  4 32  1  0
  4 33  1  0
  7 34  1  0
  7 35  1  0
  7 36  1  0
  9 37  1  0
 11 38  1  0
 15 39  1  0
 16 40  1  0
 19 41  1  0
 21 42  1  0
 22 43  1  0
 25 44  1  0
 25 45  1  0
M  END
>  <meeko>  (4)
{"is_sidechain": false}

>  <source_group>  (4)
BACE1 canonical

>  <source_system>  (4)
BACE1_verubecestat

>  <source_run>  (4)
canonical_obabel_redock_seed20260825_ex32

>  <source_seed>  (4)
20260825

>  <vina_pose_rank>  (4)
4

>  <vina_affinity_kcal_mol>  (4)
-8.3450000000000006

>  <vina_rmsd_to_crystal_angstrom>  (4)
7.3598999999999997

$$$$
BACE1_verubecestat__canonical_obabel_redock_seed20260825_ex32__pose05
     RDKit          3D

 45 47  0  0  0  0  0  0  0  0999 V2000
   27.1450   15.6570   19.6960 C   0  0  0  0  0  0  0  0  0  0  0  0
   26.7560   14.2340   19.7530 N   0  0  0  0  0  0  0  0  0  0  0  0
   26.4500   13.4730   18.6030 C   0  0  0  0  0  0  0  0  0  0  0  0
   26.6930   14.1250   17.4240 N   0  0  0  0  0  0  0  0  0  0  0  0
   26.0030   12.2550   18.6420 N   0  0  0  0  0  0  0  0  0  0  0  0
   25.6590   11.6030   19.9040 C   0  0  2  0  0  0  0  0  0  0  0  0
   25.6520   10.1180   19.5320 C   0  0  0  0  0  0  0  0  0  0  0  0
   24.2710   11.9950   20.3890 C   0  0  0  0  0  0  0  0  0  0  0  0
   23.9100   11.8530   21.7280 C   0  0  0  0  0  0  0  0  0  0  0  0
   22.6610   12.1960   22.1930 C   0  0  0  0  0  0  0  0  0  0  0  0
   22.4280   12.0070   23.5620 N   0  0  0  0  0  0  0  0  0  0  0  0
   23.1600   12.4920   24.6310 C   0  0  0  0  0  0  0  0  0  0  0  0
   24.2330   13.0740   24.5440 O   0  0  0  0  0  0  0  0  0  0  0  0
   22.5390   12.2960   25.9640 C   0  0  0  0  0  0  0  0  0  0  0  0
   21.4530   11.4500   26.1030 C   0  0  0  0  0  0  0  0  0  0  0  0
   20.9120   11.3060   27.3690 C   0  0  0  0  0  0  0  0  0  0  0  0
   21.4610   11.9940   28.4330 C   0  0  0  0  0  0  0  0  0  0  0  0
   20.9640   11.8940   29.6780 F   0  0  0  0  0  0  0  0  0  0  0  0
   22.5380   12.8180   28.1940 C   0  0  0  0  0  0  0  0  0  0  0  0
   23.0810   12.9820   26.9760 N   0  0  0  0  0  0  0  0  0  0  0  0
   21.7100   12.7260   21.3310 C   0  0  0  0  0  0  0  0  0  0  0  0
   22.0500   12.8700   19.9970 C   0  0  0  0  0  0  0  0  0  0  0  0
   23.2960   12.4920   19.5380 C   0  0  0  0  0  0  0  0  0  0  0  0
   23.5940   12.6160   18.2190 F   0  0  0  0  0  0  0  0  0  0  0  0
   26.7690   11.8020   20.9110 C   0  0  0  0  0  0  0  0  0  0  0  0
   26.9550   13.5230   21.3080 S   0  0  0  0  0  0  0  0  0  0  0  0
   28.3420   13.7110   21.6930 O   0  0  0  0  0  0  0  0  0  0  0  0
   25.8400   14.0150   22.0550 O   0  0  0  0  0  0  0  0  0  0  0  0
   27.2522   16.0490   20.7182 H   0  0  0  0  0  0  0  0  0  0  0  0
   28.1027   15.7543   19.1637 H   0  0  0  0  0  0  0  0  0  0  0  0
   26.3700   16.2279   19.1637 H   0  0  0  0  0  0  0  0  0  0  0  0
   26.5110   13.6760   16.5670 H   0  0  0  0  0  0  0  0  0  0  0  0
   27.0490   15.0430   17.4330 H   0  0  0  0  0  0  0  0  0  0  0  0
   25.6491    9.5103   20.4489 H   0  0  0  0  0  0  0  0  0  0  0  0
   24.7528    9.8926   18.9399 H   0  0  0  0  0  0  0  0  0  0  0  0
   26.5491    9.8841   18.9399 H   0  0  0  0  0  0  0  0  0  0  0  0
   24.6492   11.4529   22.4376 H   0  0  0  0  0  0  0  0  0  0  0  0
   21.6420   11.4600   23.7920 H   0  0  0  0  0  0  0  0  0  0  0  0
   21.0350   10.9118   25.2395 H   0  0  0  0  0  0  0  0  0  0  0  0
   20.0469   10.6452   27.5271 H   0  0  0  0  0  0  0  0  0  0  0  0
   22.9746   13.3682   29.0406 H   0  0  0  0  0  0  0  0  0  0  0  0
   20.7161   13.0226   21.6974 H   0  0  0  0  0  0  0  0  0  0  0  0
   21.3174   13.2914   19.2929 H   0  0  0  0  0  0  0  0  0  0  0  0
   26.5291   11.2437   21.8279 H   0  0  0  0  0  0  0  0  0  0  0  0
   27.7107   11.4354   20.4765 H   0  0  0  0  0  0  0  0  0  0  0  0
  1  2  1  0
  2  3  1  0
  3  4  1  0
  3  5  2  0
  5  6  1  0
  6  7  1  6
  6  8  1  0
  8  9  2  0
  9 10  1  0
 10 11  1  0
 11 12  1  0
 12 13  2  0
 12 14  1  0
 14 15  2  0
 15 16  1  0
 16 17  2  0
 17 18  1  0
 17 19  1  0
 19 20  2  0
 10 21  2  0
 21 22  1  0
 22 23  2  0
 23 24  1  0
  6 25  1  0
 25 26  1  0
 26 27  2  0
 26 28  2  0
 26  2  1  0
 23  8  1  0
 20 14  1  0
  1 29  1  0
  1 30  1  0
  1 31  1  0
  4 32  1  0
  4 33  1  0
  7 34  1  0
  7 35  1  0
  7 36  1  0
  9 37  1  0
 11 38  1  0
 15 39  1  0
 16 40  1  0
 19 41  1  0
 21 42  1  0
 22 43  1  0
 25 44  1  0
 25 45  1  0
M  END
>  <meeko>  (5)
{"is_sidechain": false}

>  <source_group>  (5)
BACE1 canonical

>  <source_system>  (5)
BACE1_verubecestat

>  <source_run>  (5)
canonical_obabel_redock_seed20260825_ex32

>  <source_seed>  (5)
20260825

>  <vina_pose_rank>  (5)
5

>  <vina_affinity_kcal_mol>  (5)
-8.2300000000000004

>  <vina_rmsd_to_crystal_angstrom>  (5)
7.1161000000000003

$$$$
BACE1_verubecestat__canonical_obabel_redock_seed20260825_ex32__pose06
     RDKit          3D

 45 47  0  0  0  0  0  0  0  0999 V2000
   28.4860   13.7360   24.2120 C   0  0  0  0  0  0  0  0  0  0  0  0
   28.0490   13.8470   22.8060 N   0  0  0  0  0  0  0  0  0  0  0  0
   27.1780   14.8620   22.3480 C   0  0  0  0  0  0  0  0  0  0  0  0
   26.8990   15.8190   23.2860 N   0  0  0  0  0  0  0  0  0  0  0  0
   26.6990   14.9110   21.1440 N   0  0  0  0  0  0  0  0  0  0  0  0
   26.9270   13.8350   20.1810 C   0  0  2  0  0  0  0  0  0  0  0  0
   26.6210   14.5050   18.8390 C   0  0  0  0  0  0  0  0  0  0  0  0
   25.9650   12.6750   20.3820 C   0  0  0  0  0  0  0  0  0  0  0  0
   25.0600   12.6660   21.4420 C   0  0  0  0  0  0  0  0  0  0  0  0
   24.1790   11.6290   21.6500 C   0  0  0  0  0  0  0  0  0  0  0  0
   23.3210   11.7450   22.7510 N   0  0  0  0  0  0  0  0  0  0  0  0
   22.0520   12.2950   22.7940 C   0  0  0  0  0  0  0  0  0  0  0  0
   21.5150   12.8990   21.8750 O   0  0  0  0  0  0  0  0  0  0  0  0
   21.3110   12.0790   24.0600 C   0  0  0  0  0  0  0  0  0  0  0  0
   20.1540   11.3200   24.0640 C   0  0  0  0  0  0  0  0  0  0  0  0
   19.5020   11.1530   25.2730 C   0  0  0  0  0  0  0  0  0  0  0  0
   20.0150   11.7320   26.4170 C   0  0  0  0  0  0  0  0  0  0  0  0
   19.4120   11.6060   27.6110 F   0  0  0  0  0  0  0  0  0  0  0  0
   21.1690   12.4750   26.3120 C   0  0  0  0  0  0  0  0  0  0  0  0
   21.8210   12.6600   25.1520 N   0  0  0  0  0  0  0  0  0  0  0  0
   24.1490   10.5470   20.7790 C   0  0  0  0  0  0  0  0  0  0  0  0
   25.0430   10.5370   19.7230 C   0  0  0  0  0  0  0  0  0  0  0  0
   25.9430   11.5700   19.5450 C   0  0  0  0  0  0  0  0  0  0  0  0
   26.8290   11.5220   18.5180 F   0  0  0  0  0  0  0  0  0  0  0  0
   28.3920   13.4570   20.1630 C   0  0  0  0  0  0  0  0  0  0  0  0
   28.8870   12.7940   21.7330 S   0  0  0  0  0  0  0  0  0  0  0  0
   30.3040   13.0770   21.8730 O   0  0  0  0  0  0  0  0  0  0  0  0
   28.2950   11.5160   21.9760 O   0  0  0  0  0  0  0  0  0  0  0  0
   27.6374   13.9516   24.8778 H   0  0  0  0  0  0  0  0  0  0  0  0
   28.8520   12.7164   24.4028 H   0  0  0  0  0  0  0  0  0  0  0  0
   29.2942   14.4574   24.4028 H   0  0  0  0  0  0  0  0  0  0  0  0
   26.3010   16.5680   23.0620 H   0  0  0  0  0  0  0  0  0  0  0  0
   27.2950   15.7580   24.1860 H   0  0  0  0  0  0  0  0  0  0  0  0
   26.1700   15.4925   19.0166 H   0  0  0  0  0  0  0  0  0  0  0  0
   27.5535   14.6251   18.2681 H   0  0  0  0  0  0  0  0  0  0  0  0
   25.9196   13.8789   18.2681 H   0  0  0  0  0  0  0  0  0  0  0  0
   25.0494   13.5183   22.1374 H   0  0  0  0  0  0  0  0  0  0  0  0
   23.6640   11.3890   23.6020 H   0  0  0  0  0  0  0  0  0  0  0  0
   19.7667   10.8660   23.1399 H   0  0  0  0  0  0  0  0  0  0  0  0
   18.5768   10.5601   25.3228 H   0  0  0  0  0  0  0  0  0  0  0  0
   21.5770   12.9397   27.2217 H   0  0  0  0  0  0  0  0  0  0  0  0
   23.4355    9.7225   20.9246 H   0  0  0  0  0  0  0  0  0  0  0  0
   25.0371    9.6949   19.0153 H   0  0  0  0  0  0  0  0  0  0  0  0
   28.5604   12.7007   19.3822 H   0  0  0  0  0  0  0  0  0  0  0  0
   28.9876   14.3582   19.9556 H   0  0  0  0  0  0  0  0  0  0  0  0
  1  2  1  0
  2  3  1  0
  3  4  1  0
  3  5  2  0
  5  6  1  0
  6  7  1  6
  6  8  1  0
  8  9  2  0
  9 10  1  0
 10 11  1  0
 11 12  1  0
 12 13  2  0
 12 14  1  0
 14 15  2  0
 15 16  1  0
 16 17  2  0
 17 18  1  0
 17 19  1  0
 19 20  2  0
 10 21  2  0
 21 22  1  0
 22 23  2  0
 23 24  1  0
  6 25  1  0
 25 26  1  0
 26 27  2  0
 26 28  2  0
 26  2  1  0
 23  8  1  0
 20 14  1  0
  1 29  1  0
  1 30  1  0
  1 31  1  0
  4 32  1  0
  4 33  1  0
  7 34  1  0
  7 35  1  0
  7 36  1  0
  9 37  1  0
 11 38  1  0
 15 39  1  0
 16 40  1  0
 19 41  1  0
 21 42  1  0
 22 43  1  0
 25 44  1  0
 25 45  1  0
M  END
>  <meeko>  (6)
{"is_sidechain": false}

>  <source_group>  (6)
BACE1 canonical

>  <source_system>  (6)
BACE1_verubecestat

>  <source_run>  (6)
canonical_obabel_redock_seed20260825_ex32

>  <source_seed>  (6)
20260825

>  <vina_pose_rank>  (6)
6

>  <vina_affinity_kcal_mol>  (6)
-8.0660000000000007

>  <vina_rmsd_to_crystal_angstrom>  (6)
7.5491000000000001

$$$$
BACE1_verubecestat__canonical_obabel_redock_seed20260825_ex32__pose07
     RDKit          3D

 45 47  0  0  0  0  0  0  0  0999 V2000
   21.8540   12.0150   29.0200 C   0  0  0  0  0  0  0  0  0  0  0  0
   20.8130   12.4970   28.0920 N   0  0  0  0  0  0  0  0  0  0  0  0
   19.4550   12.1190   28.1930 C   0  0  0  0  0  0  0  0  0  0  0  0
   19.1640   11.3890   29.3140 N   0  0  0  0  0  0  0  0  0  0  0  0
   18.5490   12.4450   27.3240 N   0  0  0  0  0  0  0  0  0  0  0  0
   18.8880   13.1410   26.0840 C   0  0  2  0  0  0  0  0  0  0  0  0
   17.5430   13.7210   25.6370 C   0  0  0  0  0  0  0  0  0  0  0  0
   19.3920   12.1870   25.0130 C   0  0  0  0  0  0  0  0  0  0  0  0
   20.2740   12.6170   24.0230 C   0  0  0  0  0  0  0  0  0  0  0  0
   20.7440   11.7760   23.0400 C   0  0  0  0  0  0  0  0  0  0  0  0
   21.6280   12.3330   22.1070 N   0  0  0  0  0  0  0  0  0  0  0  0
   23.0100   12.2620   22.0870 C   0  0  0  0  0  0  0  0  0  0  0  0
   23.7040   11.7930   22.9790 O   0  0  0  0  0  0  0  0  0  0  0  0
   23.6520   12.7750   20.8520 C   0  0  0  0  0  0  0  0  0  0  0  0
   22.9110   12.9060   19.6910 C   0  0  0  0  0  0  0  0  0  0  0  0
   23.5610   13.3870   18.5680 C   0  0  0  0  0  0  0  0  0  0  0  0
   24.9010   13.7190   18.6380 C   0  0  0  0  0  0  0  0  0  0  0  0
   25.5760   14.1810   17.5720 F   0  0  0  0  0  0  0  0  0  0  0  0
   25.5540   13.5480   19.8370 C   0  0  0  0  0  0  0  0  0  0  0  0
   24.9520   13.0780   20.9420 N   0  0  0  0  0  0  0  0  0  0  0  0
   20.3630   10.4400   23.0160 C   0  0  0  0  0  0  0  0  0  0  0  0
   19.4850    9.9970   23.9880 C   0  0  0  0  0  0  0  0  0  0  0  0
   18.9970   10.8590   24.9500 C   0  0  0  0  0  0  0  0  0  0  0  0
   18.1130   10.4060   25.8760 F   0  0  0  0  0  0  0  0  0  0  0  0
   19.7990   14.3120   26.3790 C   0  0  0  0  0  0  0  0  0  0  0  0
   21.3470   13.7510   27.0400 S   0  0  0  0  0  0  0  0  0  0  0  0
   21.8550   14.8250   27.8750 O   0  0  0  0  0  0  0  0  0  0  0  0
   22.1230   13.0640   26.0560 O   0  0  0  0  0  0  0  0  0  0  0  0
   21.5208   12.1693   30.0569 H   0  0  0  0  0  0  0  0  0  0  0  0
   22.0313   10.9432   28.8475 H   0  0  0  0  0  0  0  0  0  0  0  0
   22.7860   12.5732   28.8475 H   0  0  0  0  0  0  0  0  0  0  0  0
   18.2430   11.0790   29.4740 H   0  0  0  0  0  0  0  0  0  0  0  0
   19.8750   11.1760   29.9610 H   0  0  0  0  0  0  0  0  0  0  0  0
   16.9430   13.9797   26.5219 H   0  0  0  0  0  0  0  0  0  0  0  0
   17.7156   14.6247   25.0340 H   0  0  0  0  0  0  0  0  0  0  0  0
   17.0043   12.9752   25.0340 H   0  0  0  0  0  0  0  0  0  0  0  0
   20.6062   13.6656   24.0275 H   0  0  0  0  0  0  0  0  0  0  0  0
   21.2130   12.8400   21.3720 H   0  0  0  0  0  0  0  0  0  0  0  0
   21.8446   12.6377   19.6617 H   0  0  0  0  0  0  0  0  0  0  0  0
   23.0126   13.5049   17.6218 H   0  0  0  0  0  0  0  0  0  0  0  0
   26.6211   13.8089   19.8934 H   0  0  0  0  0  0  0  0  0  0  0  0
   20.7485    9.7550   22.2465 H   0  0  0  0  0  0  0  0  0  0  0  0
   19.1708    8.9429   23.9950 H   0  0  0  0  0  0  0  0  0  0  0  0
   19.9842   14.8688   25.4486 H   0  0  0  0  0  0  0  0  0  0  0  0
   19.3117   14.9610   27.1215 H   0  0  0  0  0  0  0  0  0  0  0  0
  1  2  1  0
  2  3  1  0
  3  4  1  0
  3  5  2  0
  5  6  1  0
  6  7  1  6
  6  8  1  0
  8  9  2  0
  9 10  1  0
 10 11  1  0
 11 12  1  0
 12 13  2  0
 12 14  1  0
 14 15  2  0
 15 16  1  0
 16 17  2  0
 17 18  1  0
 17 19  1  0
 19 20  2  0
 10 21  2  0
 21 22  1  0
 22 23  2  0
 23 24  1  0
  6 25  1  0
 25 26  1  0
 26 27  2  0
 26 28  2  0
 26  2  1  0
 23  8  1  0
 20 14  1  0
  1 29  1  0
  1 30  1  0
  1 31  1  0
  4 32  1  0
  4 33  1  0
  7 34  1  0
  7 35  1  0
  7 36  1  0
  9 37  1  0
 11 38  1  0
 15 39  1  0
 16 40  1  0
 19 41  1  0
 21 42  1  0
 22 43  1  0
 25 44  1  0
 25 45  1  0
M  END
>  <meeko>  (7)
{"is_sidechain": false}

>  <source_group>  (7)
BACE1 canonical

>  <source_system>  (7)
BACE1_verubecestat

>  <source_run>  (7)
canonical_obabel_redock_seed20260825_ex32

>  <source_seed>  (7)
20260825

>  <vina_pose_rank>  (7)
7

>  <vina_affinity_kcal_mol>  (7)
-8.0440000000000005

>  <vina_rmsd_to_crystal_angstrom>  (7)
6.3169000000000004

$$$$
BACE1_verubecestat__canonical_obabel_redock_seed20260825_ex32__pose08
     RDKit          3D

 45 47  0  0  0  0  0  0  0  0999 V2000
   21.2080    9.5520   23.3630 C   0  0  0  0  0  0  0  0  0  0  0  0
   21.5780   10.5250   22.3160 N   0  0  0  0  0  0  0  0  0  0  0  0
   21.5820   10.2120   20.9390 C   0  0  0  0  0  0  0  0  0  0  0  0
   21.0670    8.9760   20.6500 N   0  0  0  0  0  0  0  0  0  0  0  0
   22.0070   11.0180   20.0160 N   0  0  0  0  0  0  0  0  0  0  0  0
   22.6410   12.2940   20.3440 C   0  0  2  0  0  0  0  0  0  0  0  0
   22.5350   13.0760   19.0320 C   0  0  0  0  0  0  0  0  0  0  0  0
   24.1100   12.1270   20.6990 C   0  0  0  0  0  0  0  0  0  0  0  0
   24.7100   12.9220   21.6740 C   0  0  0  0  0  0  0  0  0  0  0  0
   26.0380   12.7940   22.0140 C   0  0  0  0  0  0  0  0  0  0  0  0
   26.5160   13.6530   23.0120 N   0  0  0  0  0  0  0  0  0  0  0  0
   26.2850   13.5960   24.3750 C   0  0  0  0  0  0  0  0  0  0  0  0
   25.4980   12.8360   24.9240 O   0  0  0  0  0  0  0  0  0  0  0  0
   27.1020   14.5220   25.1950 C   0  0  0  0  0  0  0  0  0  0  0  0
   26.5190   15.6440   25.7590 C   0  0  0  0  0  0  0  0  0  0  0  0
   27.3290   16.4750   26.5130 C   0  0  0  0  0  0  0  0  0  0  0  0
   28.6650   16.1660   26.6810 C   0  0  0  0  0  0  0  0  0  0  0  0
   29.4910   16.9470   27.3970 F   0  0  0  0  0  0  0  0  0  0  0  0
   29.1540   15.0300   26.0770 C   0  0  0  0  0  0  0  0  0  0  0  0
   28.3940   14.2080   25.3340 N   0  0  0  0  0  0  0  0  0  0  0  0
   26.8320   11.8350   21.3980 C   0  0  0  0  0  0  0  0  0  0  0  0
   26.2540   11.0390   20.4250 C   0  0  0  0  0  0  0  0  0  0  0  0
   24.9290   11.2000   20.0720 C   0  0  0  0  0  0  0  0  0  0  0  0
   24.3940   10.4260   19.0930 F   0  0  0  0  0  0  0  0  0  0  0  0
   21.8140   13.0360   21.3700 C   0  0  0  0  0  0  0  0  0  0  0  0
   21.7560   12.1360   22.8990 S   0  0  0  0  0  0  0  0  0  0  0  0
   20.5090   12.4990   23.5460 O   0  0  0  0  0  0  0  0  0  0  0  0
   23.0270   12.1240   23.5530 O   0  0  0  0  0  0  0  0  0  0  0  0
   21.3775    9.9978   24.3542 H   0  0  0  0  0  0  0  0  0  0  0  0
   20.1459    9.2859   23.2574 H   0  0  0  0  0  0  0  0  0  0  0  0
   21.8249    8.6474   23.2574 H   0  0  0  0  0  0  0  0  0  0  0  0
   21.0270    8.6670   19.7160 H   0  0  0  0  0  0  0  0  0  0  0  0
   20.7370    8.3980   21.3750 H   0  0  0  0  0  0  0  0  0  0  0  0
   22.3902   14.1439   19.2523 H   0  0  0  0  0  0  0  0  0  0  0  0
   23.4593   12.9436   18.4505 H   0  0  0  0  0  0  0  0  0  0  0  0
   21.6793   12.7023   18.4505 H   0  0  0  0  0  0  0  0  0  0  0  0
   24.1008   13.6786   22.1902 H   0  0  0  0  0  0  0  0  0  0  0  0
   27.0900   14.3910   22.7040 H   0  0  0  0  0  0  0  0  0  0  0  0
   25.4517   15.8666   25.6132 H   0  0  0  0  0  0  0  0  0  0  0  0
   26.9099   17.3797   26.9776 H   0  0  0  0  0  0  0  0  0  0  0  0
   30.2178   14.7833   26.2089 H   0  0  0  0  0  0  0  0  0  0  0  0
   27.8893   11.7120   21.6756 H   0  0  0  0  0  0  0  0  0  0  0  0
   26.8584   10.2673   19.9259 H   0  0  0  0  0  0  0  0  0  0  0  0
   22.2628   14.0241   21.5494 H   0  0  0  0  0  0  0  0  0  0  0  0
   20.7893   13.1464   20.9855 H   0  0  0  0  0  0  0  0  0  0  0  0
  1  2  1  0
  2  3  1  0
  3  4  1  0
  3  5  2  0
  5  6  1  0
  6  7  1  6
  6  8  1  0
  8  9  2  0
  9 10  1  0
 10 11  1  0
 11 12  1  0
 12 13  2  0
 12 14  1  0
 14 15  2  0
 15 16  1  0
 16 17  2  0
 17 18  1  0
 17 19  1  0
 19 20  2  0
 10 21  2  0
 21 22  1  0
 22 23  2  0
 23 24  1  0
  6 25  1  0
 25 26  1  0
 26 27  2  0
 26 28  2  0
 26  2  1  0
 23  8  1  0
 20 14  1  0
  1 29  1  0
  1 30  1  0
  1 31  1  0
  4 32  1  0
  4 33  1  0
  7 34  1  0
  7 35  1  0
  7 36  1  0
  9 37  1  0
 11 38  1  0
 15 39  1  0
 16 40  1  0
 19 41  1  0
 21 42  1  0
 22 43  1  0
 25 44  1  0
 25 45  1  0
M  END
>  <meeko>  (8)
{"is_sidechain": false}

>  <source_group>  (8)
BACE1 canonical

>  <source_system>  (8)
BACE1_verubecestat

>  <source_run>  (8)
canonical_obabel_redock_seed20260825_ex32

>  <source_seed>  (8)
20260825

>  <vina_pose_rank>  (8)
8

>  <vina_affinity_kcal_mol>  (8)
-7.9580000000000002

>  <vina_rmsd_to_crystal_angstrom>  (8)
4.8167999999999997

$$$$
BACE1_verubecestat__canonical_obabel_redock_seed20260825_ex32__pose09
     RDKit          3D

 45 47  0  0  0  0  0  0  0  0999 V2000
   21.8330   12.7790   21.9480 C   0  0  0  0  0  0  0  0  0  0  0  0
   22.8800   12.0370   21.2190 N   0  0  0  0  0  0  0  0  0  0  0  0
   23.6440   11.0050   21.8070 C   0  0  0  0  0  0  0  0  0  0  0  0
   23.2260   10.6500   23.0610 N   0  0  0  0  0  0  0  0  0  0  0  0
   24.6400   10.4180   21.2170 N   0  0  0  0  0  0  0  0  0  0  0  0
   25.1370   10.8690   19.9180 C   0  0  2  0  0  0  0  0  0  0  0  0
   25.9330    9.6610   19.4170 C   0  0  0  0  0  0  0  0  0  0  0  0
   26.0770   12.0570   20.0480 C   0  0  0  0  0  0  0  0  0  0  0  0
   26.3610   12.6180   21.2920 C   0  0  0  0  0  0  0  0  0  0  0  0
   27.2060   13.6950   21.4390 C   0  0  0  0  0  0  0  0  0  0  0  0
   27.4080   14.1600   22.7450 N   0  0  0  0  0  0  0  0  0  0  0  0
   28.3930   13.7920   23.6430 C   0  0  0  0  0  0  0  0  0  0  0  0
   29.1920   12.8790   23.4770 O   0  0  0  0  0  0  0  0  0  0  0  0
   28.4700   14.6180   24.8730 C   0  0  0  0  0  0  0  0  0  0  0  0
   27.3630   15.3320   25.2960 C   0  0  0  0  0  0  0  0  0  0  0  0
   27.4910   16.0870   26.4480 C   0  0  0  0  0  0  0  0  0  0  0  0
   28.6930   16.1040   27.1290 C   0  0  0  0  0  0  0  0  0  0  0  0
   28.8680   16.8300   28.2470 F   0  0  0  0  0  0  0  0  0  0  0  0
   29.7400   15.3650   26.6260 C   0  0  0  0  0  0  0  0  0  0  0  0
   29.6470   14.6270   25.5080 N   0  0  0  0  0  0  0  0  0  0  0  0
   27.8320   14.2530   20.3320 C   0  0  0  0  0  0  0  0  0  0  0  0
   27.5600   13.7110   19.0880 C   0  0  0  0  0  0  0  0  0  0  0  0
   26.6850   12.6520   18.9530 C   0  0  0  0  0  0  0  0  0  0  0  0
   26.4120   12.1570   17.7180 F   0  0  0  0  0  0  0  0  0  0  0  0
   23.9830   11.0670   18.9600 C   0  0  0  0  0  0  0  0  0  0  0  0
   22.9120   12.3640   19.5290 S   0  0  0  0  0  0  0  0  0  0  0  0
   21.5900   12.0680   19.0080 O   0  0  0  0  0  0  0  0  0  0  0  0
   23.5420   13.6450   19.4400 O   0  0  0  0  0  0  0  0  0  0  0  0
   21.9908   12.6671   23.0309 H   0  0  0  0  0  0  0  0  0  0  0  0
   21.8832   13.8442   21.6782 H   0  0  0  0  0  0  0  0  0  0  0  0
   20.8446   12.3787   21.6782 H   0  0  0  0  0  0  0  0  0  0  0  0
   23.6960    9.9390   23.5540 H   0  0  0  0  0  0  0  0  0  0  0  0
   22.4550   11.1060   23.4710 H   0  0  0  0  0  0  0  0  0  0  0  0
   26.3104    9.0883   20.2770 H   0  0  0  0  0  0  0  0  0  0  0  0
   25.2803    9.0192   18.8070 H   0  0  0  0  0  0  0  0  0  0  0  0
   26.7802   10.0076   18.8070 H   0  0  0  0  0  0  0  0  0  0  0  0
   25.8933   12.1847   22.1884 H   0  0  0  0  0  0  0  0  0  0  0  0
   26.7670   14.8370   23.0630 H   0  0  0  0  0  0  0  0  0  0  0  0
   26.4162   15.3005   24.7370 H   0  0  0  0  0  0  0  0  0  0  0  0
   26.6377   16.6725   26.8210 H   0  0  0  0  0  0  0  0  0  0  0  0
   30.6984   15.3798   27.1656 H   0  0  0  0  0  0  0  0  0  0  0  0
   28.5239   15.1012   20.4408 H   0  0  0  0  0  0  0  0  0  0  0  0
   28.0475   14.1296   18.1952 H   0  0  0  0  0  0  0  0  0  0  0  0
   24.3781   11.3336   17.9686 H   0  0  0  0  0  0  0  0  0  0  0  0
   23.4067   10.1319   18.9018 H   0  0  0  0  0  0  0  0  0  0  0  0
  1  2  1  0
  2  3  1  0
  3  4  1  0
  3  5  2  0
  5  6  1  0
  6  7  1  6
  6  8  1  0
  8  9  2  0
  9 10  1  0
 10 11  1  0
 11 12  1  0
 12 13  2  0
 12 14  1  0
 14 15  2  0
 15 16  1  0
 16 17  2  0
 17 18  1  0
 17 19  1  0
 19 20  2  0
 10 21  2  0
 21 22  1  0
 22 23  2  0
 23 24  1  0
  6 25  1  0
 25 26  1  0
 26 27  2  0
 26 28  2  0
 26  2  1  0
 23  8  1  0
 20 14  1  0
  1 29  1  0
  1 30  1  0
  1 31  1  0
  4 32  1  0
  4 33  1  0
  7 34  1  0
  7 35  1  0
  7 36  1  0
  9 37  1  0
 11 38  1  0
 15 39  1  0
 16 40  1  0
 19 41  1  0
 21 42  1  0
 22 43  1  0
 25 44  1  0
 25 45  1  0
M  END
>  <meeko>  (9)
{"is_sidechain": false}

>  <source_group>  (9)
BACE1 canonical

>  <source_system>  (9)
BACE1_verubecestat

>  <source_run>  (9)
canonical_obabel_redock_seed20260825_ex32

>  <source_seed>  (9)
20260825

>  <vina_pose_rank>  (9)
9

>  <vina_affinity_kcal_mol>  (9)
-7.8150000000000004

>  <vina_rmsd_to_crystal_angstrom>  (9)
5.2732999999999999

$$$$
BACE1_verubecestat__canonical_obabel_redock_seed20260825_ex32__pose10
     RDKit          3D

 45 47  0  0  0  0  0  0  0  0999 V2000
   27.5910   15.6940   20.6640 C   0  0  0  0  0  0  0  0  0  0  0  0
   27.1160   14.3200   20.4060 N   0  0  0  0  0  0  0  0  0  0  0  0
   26.9710   13.7870   19.1060 C   0  0  0  0  0  0  0  0  0  0  0  0
   27.4520   14.6010   18.1150 N   0  0  0  0  0  0  0  0  0  0  0  0
   26.4540   12.6240   18.8560 N   0  0  0  0  0  0  0  0  0  0  0  0
   25.8580   11.8060   19.9110 C   0  0  2  0  0  0  0  0  0  0  0  0
   25.8290   10.4080   19.2870 C   0  0  0  0  0  0  0  0  0  0  0  0
   24.4330   12.2320   20.2270 C   0  0  0  0  0  0  0  0  0  0  0  0
   23.9490   12.2120   21.5340 C   0  0  0  0  0  0  0  0  0  0  0  0
   22.6630   12.5890   21.8490 C   0  0  0  0  0  0  0  0  0  0  0  0
   22.3030   12.5250   23.2010 N   0  0  0  0  0  0  0  0  0  0  0  0
   21.5160   11.5800   23.8350 C   0  0  0  0  0  0  0  0  0  0  0  0
   20.8880   10.6940   23.2710 O   0  0  0  0  0  0  0  0  0  0  0  0
   21.4920   11.6660   25.3150 C   0  0  0  0  0  0  0  0  0  0  0  0
   20.7110   10.7880   26.0460 C   0  0  0  0  0  0  0  0  0  0  0  0
   20.7240   10.9150   27.4240 C   0  0  0  0  0  0  0  0  0  0  0  0
   21.5010   11.8900   28.0170 C   0  0  0  0  0  0  0  0  0  0  0  0
   21.5390   12.0570   29.3500 F   0  0  0  0  0  0  0  0  0  0  0  0
   22.2400   12.7210   27.2060 C   0  0  0  0  0  0  0  0  0  0  0  0
   22.2430   12.6260   25.8660 N   0  0  0  0  0  0  0  0  0  0  0  0
   21.7970   13.0320   20.8560 C   0  0  0  0  0  0  0  0  0  0  0  0
   22.2600   13.0550   19.5530 C   0  0  0  0  0  0  0  0  0  0  0  0
   23.5420   12.6430   19.2480 C   0  0  0  0  0  0  0  0  0  0  0  0
   23.9620   12.6470   17.9560 F   0  0  0  0  0  0  0  0  0  0  0  0
   26.7860   11.7390   21.1040 C   0  0  0  0  0  0  0  0  0  0  0  0
   27.0000   13.3480   21.8220 S   0  0  0  0  0  0  0  0  0  0  0  0
   28.3080   13.3500   22.4530 O   0  0  0  0  0  0  0  0  0  0  0  0
   25.8030   13.8070   22.4540 O   0  0  0  0  0  0  0  0  0  0  0  0
   27.6497   15.8639   21.7492 H   0  0  0  0  0  0  0  0  0  0  0  0
   28.5874   15.8274   20.2175 H   0  0  0  0  0  0  0  0  0  0  0  0
   26.8897   16.4143   20.2175 H   0  0  0  0  0  0  0  0  0  0  0  0
   27.3970   14.3160   17.1740 H   0  0  0  0  0  0  0  0  0  0  0  0
   27.8550   15.4700   18.3430 H   0  0  0  0  0  0  0  0  0  0  0  0
   25.8133    9.6507   20.0846 H   0  0  0  0  0  0  0  0  0  0  0  0
   24.9285   10.3031   18.6640 H   0  0  0  0  0  0  0  0  0  0  0  0
   26.7244   10.2659   18.6640 H   0  0  0  0  0  0  0  0  0  0  0  0
   24.6185   11.8833   22.3425 H   0  0  0  0  0  0  0  0  0  0  0  0
   22.6550   13.2450   23.7730 H   0  0  0  0  0  0  0  0  0  0  0  0
   20.1023   10.0176   25.5500 H   0  0  0  0  0  0  0  0  0  0  0  0
   20.1166   10.2406   28.0455 H   0  0  0  0  0  0  0  0  0  0  0  0
   22.8574   13.4998   27.6774 H   0  0  0  0  0  0  0  0  0  0  0  0
   20.7739   13.3547   21.0993 H   0  0  0  0  0  0  0  0  0  0  0  0
   21.5975   13.4065   18.7483 H   0  0  0  0  0  0  0  0  0  0  0  0
   26.3577   11.0613   21.8572 H   0  0  0  0  0  0  0  0  0  0  0  0
   27.7659   11.3672   20.7699 H   0  0  0  0  0  0  0  0  0  0  0  0
  1  2  1  0
  2  3  1  0
  3  4  1  0
  3  5  2  0
  5  6  1  0
  6  7  1  6
  6  8  1  0
  8  9  2  0
  9 10  1  0
 10 11  1  0
 11 12  1  0
 12 13  2  0
 12 14  1  0
 14 15  2  0
 15 16  1  0
 16 17  2  0
 17 18  1  0
 17 19  1  0
 19 20  2  0
 10 21  2  0
 21 22  1  0
 22 23  2  0
 23 24  1  0
  6 25  1  0
 25 26  1  0
 26 27  2  0
 26 28  2  0
 26  2  1  0
 23  8  1  0
 20 14  1  0
  1 29  1  0
  1 30  1  0
  1 31  1  0
  4 32  1  0
  4 33  1  0
  7 34  1  0
  7 35  1  0
  7 36  1  0
  9 37  1  0
 11 38  1  0
 15 39  1  0
 16 40  1  0
 19 41  1  0
 21 42  1  0
 22 43  1  0
 25 44  1  0
 25 45  1  0
M  END
>  <meeko>  (10)
{"is_sidechain": false}

>  <source_group>  (10)
BACE1 canonical

>  <source_system>  (10)
BACE1_verubecestat

>  <source_run>  (10)
canonical_obabel_redock_seed20260825_ex32

>  <source_seed>  (10)
20260825

>  <vina_pose_rank>  (10)
10

>  <vina_affinity_kcal_mol>  (10)
-7.7300000000000004

>  <vina_rmsd_to_crystal_angstrom>  (10)
7.1871999999999998

$$$$
BACE1_verubecestat__canonical_obabel_redock_seed20260825_ex32__pose11
     RDKit          3D

 45 47  0  0  0  0  0  0  0  0999 V2000
   15.5490   13.2530   25.7400 C   0  0  0  0  0  0  0  0  0  0  0  0
   16.6540   14.0880   26.2520 N   0  0  0  0  0  0  0  0  0  0  0  0
   17.2190   15.1530   25.5160 C   0  0  0  0  0  0  0  0  0  0  0  0
   16.5540   15.4390   24.3530 N   0  0  0  0  0  0  0  0  0  0  0  0
   18.2580   15.8260   25.9020 N   0  0  0  0  0  0  0  0  0  0  0  0
   19.0150   15.4520   27.0950 C   0  0  2  0  0  0  0  0  0  0  0  0
   19.7970   16.7280   27.4200 C   0  0  0  0  0  0  0  0  0  0  0  0
   20.0030   14.3300   26.8150 C   0  0  0  0  0  0  0  0  0  0  0  0
   19.9980   13.6540   25.5960 C   0  0  0  0  0  0  0  0  0  0  0  0
   20.8780   12.6330   25.3170 C   0  0  0  0  0  0  0  0  0  0  0  0
   20.7680   12.0380   24.0530 N   0  0  0  0  0  0  0  0  0  0  0  0
   21.6900   12.0430   23.0210 C   0  0  0  0  0  0  0  0  0  0  0  0
   22.7260   12.6950   23.0050 O   0  0  0  0  0  0  0  0  0  0  0  0
   21.3710   11.1450   21.8840 C   0  0  0  0  0  0  0  0  0  0  0  0
   21.7850   11.4770   20.6050 C   0  0  0  0  0  0  0  0  0  0  0  0
   21.4590   10.6050   19.5820 C   0  0  0  0  0  0  0  0  0  0  0  0
   20.7490    9.4530   19.8590 C   0  0  0  0  0  0  0  0  0  0  0  0
   20.4020    8.5810   18.8970 F   0  0  0  0  0  0  0  0  0  0  0  0
   20.3770    9.2130   21.1620 C   0  0  0  0  0  0  0  0  0  0  0  0
   20.6740   10.0430   22.1760 N   0  0  0  0  0  0  0  0  0  0  0  0
   21.8320   12.2510   26.2510 C   0  0  0  0  0  0  0  0  0  0  0  0
   21.8500   12.9090   27.4690 C   0  0  0  0  0  0  0  0  0  0  0  0
   20.9400   13.9100   27.7470 C   0  0  0  0  0  0  0  0  0  0  0  0
   20.9590   14.5190   28.9600 F   0  0  0  0  0  0  0  0  0  0  0  0
   18.0730   15.2020   28.2520 C   0  0  0  0  0  0  0  0  0  0  0  0
   17.0170   13.8160   27.9130 S   0  0  0  0  0  0  0  0  0  0  0  0
   15.7930   14.0350   28.6620 O   0  0  0  0  0  0  0  0  0  0  0  0
   17.7470   12.5870   27.9060 O   0  0  0  0  0  0  0  0  0  0  0  0
   14.9877   12.8289   26.5856 H   0  0  0  0  0  0  0  0  0  0  0  0
   14.8766   13.8706   25.1265 H   0  0  0  0  0  0  0  0  0  0  0  0
   15.9595   12.4375   25.1265 H   0  0  0  0  0  0  0  0  0  0  0  0
   16.8720   16.1660   23.7710 H   0  0  0  0  0  0  0  0  0  0  0  0
   15.7570   14.9180   24.1010 H   0  0  0  0  0  0  0  0  0  0  0  0
   19.8692   16.8459   28.5113 H   0  0  0  0  0  0  0  0  0  0  0  0
   20.8075   16.6580   26.9911 H   0  0  0  0  0  0  0  0  0  0  0  0
   19.2760   17.5966   26.9911 H   0  0  0  0  0  0  0  0  0  0  0  0
   19.2649   13.9468   24.8299 H   0  0  0  0  0  0  0  0  0  0  0  0
   19.9280   11.5550   23.8770 H   0  0  0  0  0  0  0  0  0  0  0  0
   22.3517   12.3994   20.4099 H   0  0  0  0  0  0  0  0  0  0  0  0
   21.7647   10.8286   18.5493 H   0  0  0  0  0  0  0  0  0  0  0  0
   19.8091    8.2975   21.3841 H   0  0  0  0  0  0  0  0  0  0  0  0
   22.5520   11.4494   26.0297 H   0  0  0  0  0  0  0  0  0  0  0  0
   22.5989   12.6309   28.2252 H   0  0  0  0  0  0  0  0  0  0  0  0
   18.6611   14.9948   29.1582 H   0  0  0  0  0  0  0  0  0  0  0  0
   17.4481   16.0953   28.3986 H   0  0  0  0  0  0  0  0  0  0  0  0
  1  2  1  0
  2  3  1  0
  3  4  1  0
  3  5  2  0
  5  6  1  0
  6  7  1  1
  6  8  1  0
  8  9  2  0
  9 10  1  0
 10 11  1  0
 11 12  1  0
 12 13  2  0
 12 14  1  0
 14 15  2  0
 15 16  1  0
 16 17  2  0
 17 18  1  0
 17 19  1  0
 19 20  2  0
 10 21  2  0
 21 22  1  0
 22 23  2  0
 23 24  1  0
  6 25  1  0
 25 26  1  0
 26 27  2  0
 26 28  2  0
 26  2  1  0
 23  8  1  0
 20 14  1  0
  1 29  1  0
  1 30  1  0
  1 31  1  0
  4 32  1  0
  4 33  1  0
  7 34  1  0
  7 35  1  0
  7 36  1  0
  9 37  1  0
 11 38  1  0
 15 39  1  0
 16 40  1  0
 19 41  1  0
 21 42  1  0
 22 43  1  0
 25 44  1  0
 25 45  1  0
M  END
>  <meeko>  (11)
{"is_sidechain": false}

>  <source_group>  (11)
BACE1 canonical

>  <source_system>  (11)
BACE1_verubecestat

>  <source_run>  (11)
canonical_obabel_redock_seed20260825_ex32

>  <source_seed>  (11)
20260825

>  <vina_pose_rank>  (11)
11

>  <vina_affinity_kcal_mol>  (11)
-7.6820000000000004

>  <vina_rmsd_to_crystal_angstrom>  (11)
8.3135999999999992

$$$$
BACE1_verubecestat__canonical_obabel_redock_seed20260825_ex32__pose12
     RDKit          3D

 45 47  0  0  0  0  0  0  0  0999 V2000
   21.9740   11.3030   19.9070 C   0  0  0  0  0  0  0  0  0  0  0  0
   23.4430   11.1800   19.9810 N   0  0  0  0  0  0  0  0  0  0  0  0
   24.0950   10.1180   20.6450 C   0  0  0  0  0  0  0  0  0  0  0  0
   23.2490    9.1340   21.0820 N   0  0  0  0  0  0  0  0  0  0  0  0
   25.3790   10.0510   20.8130 N   0  0  0  0  0  0  0  0  0  0  0  0
   26.2620   11.1510   20.4280 C   0  0  2  0  0  0  0  0  0  0  0  0
   27.6360   10.4780   20.3540 C   0  0  0  0  0  0  0  0  0  0  0  0
   26.3070   12.2440   21.4840 C   0  0  0  0  0  0  0  0  0  0  0  0
   25.4340   12.2310   22.5710 C   0  0  0  0  0  0  0  0  0  0  0  0
   25.4500   13.2080   23.5400 C   0  0  0  0  0  0  0  0  0  0  0  0
   24.5220   13.0750   24.5810 N   0  0  0  0  0  0  0  0  0  0  0  0
   23.2770   12.4740   24.5470 C   0  0  0  0  0  0  0  0  0  0  0  0
   22.7210   12.0620   23.5380 O   0  0  0  0  0  0  0  0  0  0  0  0
   22.6190   12.3060   25.8660 C   0  0  0  0  0  0  0  0  0  0  0  0
   21.5070   11.4900   25.9840 C   0  0  0  0  0  0  0  0  0  0  0  0
   20.9320   11.3710   27.2370 C   0  0  0  0  0  0  0  0  0  0  0  0
   21.4740   12.0510   28.3100 C   0  0  0  0  0  0  0  0  0  0  0  0
   20.9450   11.9740   29.5430 F   0  0  0  0  0  0  0  0  0  0  0  0
   22.5780   12.8430   28.0920 C   0  0  0  0  0  0  0  0  0  0  0  0
   23.1550   12.9830   26.8860 N   0  0  0  0  0  0  0  0  0  0  0  0
   26.3700   14.2470   23.4760 C   0  0  0  0  0  0  0  0  0  0  0  0
   27.2420   14.2790   22.4020 C   0  0  0  0  0  0  0  0  0  0  0  0
   27.1930   13.3090   21.4200 C   0  0  0  0  0  0  0  0  0  0  0  0
   28.0400   13.3780   20.3610 F   0  0  0  0  0  0  0  0  0  0  0  0
   25.9250   11.6230   19.0310 C   0  0  0  0  0  0  0  0  0  0  0  0
   24.2840   12.2980   18.9770 S   0  0  0  0  0  0  0  0  0  0  0  0
   23.8020   12.1050   17.6210 O   0  0  0  0  0  0  0  0  0  0  0  0
   24.1980   13.5330   19.6930 O   0  0  0  0  0  0  0  0  0  0  0  0
   21.5573   11.3379   20.9244 H   0  0  0  0  0  0  0  0  0  0  0  0
   21.7099   12.2264   19.3707 H   0  0  0  0  0  0  0  0  0  0  0  0
   21.5600   10.4364   19.3707 H   0  0  0  0  0  0  0  0  0  0  0  0
   23.6090    8.3500   21.5570 H   0  0  0  0  0  0  0  0  0  0  0  0
   22.2800    9.2090   20.9200 H   0  0  0  0  0  0  0  0  0  0  0  0
   28.0099   10.2949   21.3722 H   0  0  0  0  0  0  0  0  0  0  0  0
   27.5473    9.5213   19.8183 H   0  0  0  0  0  0  0  0  0  0  0  0
   28.3375   11.1345   19.8183 H   0  0  0  0  0  0  0  0  0  0  0  0
   24.7065   11.4105   22.6571 H   0  0  0  0  0  0  0  0  0  0  0  0
   24.7910   13.4590   25.4470 H   0  0  0  0  0  0  0  0  0  0  0  0
   21.0959   10.9563   25.1144 H   0  0  0  0  0  0  0  0  0  0  0  0
   20.0449   10.7360   27.3782 H   0  0  0  0  0  0  0  0  0  0  0  0
   23.0088   13.3874   28.9452 H   0  0  0  0  0  0  0  0  0  0  0  0
   26.4043   15.0216   24.2563 H   0  0  0  0  0  0  0  0  0  0  0  0
   27.9841   15.0877   22.3294 H   0  0  0  0  0  0  0  0  0  0  0  0
   26.6446   12.3979   18.7280 H   0  0  0  0  0  0  0  0  0  0  0  0
   25.9777   10.7648   18.3449 H   0  0  0  0  0  0  0  0  0  0  0  0
  1  2  1  0
  2  3  1  0
  3  4  1  0
  3  5  2  0
  5  6  1  0
  6  7  1  6
  6  8  1  0
  8  9  2  0
  9 10  1  0
 10 11  1  0
 11 12  1  0
 12 13  2  0
 12 14  1  0
 14 15  2  0
 15 16  1  0
 16 17  2  0
 17 18  1  0
 17 19  1  0
 19 20  2  0
 10 21  2  0
 21 22  1  0
 22 23  2  0
 23 24  1  0
  6 25  1  0
 25 26  1  0
 26 27  2  0
 26 28  2  0
 26  2  1  0
 23  8  1  0
 20 14  1  0
  1 29  1  0
  1 30  1  0
  1 31  1  0
  4 32  1  0
  4 33  1  0
  7 34  1  0
  7 35  1  0
  7 36  1  0
  9 37  1  0
 11 38  1  0
 15 39  1  0
 16 40  1  0
 19 41  1  0
 21 42  1  0
 22 43  1  0
 25 44  1  0
 25 45  1  0
M  END
>  <meeko>  (12)
{"is_sidechain": false}

>  <source_group>  (12)
BACE1 canonical

>  <source_system>  (12)
BACE1_verubecestat

>  <source_run>  (12)
canonical_obabel_redock_seed20260825_ex32

>  <source_seed>  (12)
20260825

>  <vina_pose_rank>  (12)
12

>  <vina_affinity_kcal_mol>  (12)
-7.5199999999999996

>  <vina_rmsd_to_crystal_angstrom>  (12)
6.8571999999999997

$$$$
BACE1_verubecestat__canonical_obabel_redock_seed20260825_ex32__pose13
     RDKit          3D

 45 47  0  0  0  0  0  0  0  0999 V2000
   23.6870   13.7910   18.0990 C   0  0  0  0  0  0  0  0  0  0  0  0
   24.7510   13.0430   18.7970 N   0  0  0  0  0  0  0  0  0  0  0  0
   24.6600   11.6620   19.0840 C   0  0  0  0  0  0  0  0  0  0  0  0
   23.5720   11.0490   18.5250 N   0  0  0  0  0  0  0  0  0  0  0  0
   25.5340   11.0130   19.7900 N   0  0  0  0  0  0  0  0  0  0  0  0
   26.6400   11.6960   20.4610 C   0  0  2  0  0  0  0  0  0  0  0  0
   27.6260   10.5580   20.7400 C   0  0  0  0  0  0  0  0  0  0  0  0
   26.2120   12.3110   21.7840 C   0  0  0  0  0  0  0  0  0  0  0  0
   24.8880   12.2450   22.2140 C   0  0  0  0  0  0  0  0  0  0  0  0
   24.4730   12.7950   23.4060 C   0  0  0  0  0  0  0  0  0  0  0  0
   23.1150   12.6570   23.7210 N   0  0  0  0  0  0  0  0  0  0  0  0
   22.4810   11.5900   24.3320 C   0  0  0  0  0  0  0  0  0  0  0  0
   23.0030   10.5120   24.5860 O   0  0  0  0  0  0  0  0  0  0  0  0
   21.0700   11.8300   24.7220 C   0  0  0  0  0  0  0  0  0  0  0  0
   20.1350   10.8190   24.5900 C   0  0  0  0  0  0  0  0  0  0  0  0
   18.8330   11.0980   24.9670 C   0  0  0  0  0  0  0  0  0  0  0  0
   18.5130   12.3490   25.4580 C   0  0  0  0  0  0  0  0  0  0  0  0
   17.2610   12.6690   25.8270 F   0  0  0  0  0  0  0  0  0  0  0  0
   19.5120   13.2920   25.5470 C   0  0  0  0  0  0  0  0  0  0  0  0
   20.7820   13.0520   25.1830 N   0  0  0  0  0  0  0  0  0  0  0  0
   25.3830   13.4260   24.2440 C   0  0  0  0  0  0  0  0  0  0  0  0
   26.7010   13.5040   23.8320 C   0  0  0  0  0  0  0  0  0  0  0  0
   27.0970   12.9760   22.6190 C   0  0  0  0  0  0  0  0  0  0  0  0
   28.3920   13.0910   22.2240 F   0  0  0  0  0  0  0  0  0  0  0  0
   27.3200   12.6470   19.5020 C   0  0  0  0  0  0  0  0  0  0  0  0
   26.2070   13.9370   19.0020 S   0  0  0  0  0  0  0  0  0  0  0  0
   26.6370   14.3670   17.6840 O   0  0  0  0  0  0  0  0  0  0  0  0
   25.9130   14.8270   20.0820 O   0  0  0  0  0  0  0  0  0  0  0  0
   23.0215   14.2589   18.8394 H   0  0  0  0  0  0  0  0  0  0  0  0
   24.1398   14.5705   17.4687 H   0  0  0  0  0  0  0  0  0  0  0  0
   23.1068   13.1010   17.4687 H   0  0  0  0  0  0  0  0  0  0  0  0
   23.4220   10.0860   18.6680 H   0  0  0  0  0  0  0  0  0  0  0  0
   22.9390   11.5700   17.9790 H   0  0  0  0  0  0  0  0  0  0  0  0
   27.7384   10.4283   21.8265 H   0  0  0  0  0  0  0  0  0  0  0  0
   27.2452    9.6260   20.2969 H   0  0  0  0  0  0  0  0  0  0  0  0
   28.6027   10.8022   20.2969 H   0  0  0  0  0  0  0  0  0  0  0  0
   24.1485   11.7356   21.5787 H   0  0  0  0  0  0  0  0  0  0  0  0
   22.5380   13.4170   23.4770 H   0  0  0  0  0  0  0  0  0  0  0  0
   20.4161    9.8297   24.1997 H   0  0  0  0  0  0  0  0  0  0  0  0
   18.0550   10.3257   24.8759 H   0  0  0  0  0  0  0  0  0  0  0  0
   19.2578   14.2895   25.9347 H   0  0  0  0  0  0  0  0  0  0  0  0
   25.0649   13.8513   25.2073 H   0  0  0  0  0  0  0  0  0  0  0  0
   27.4438   13.9932   24.4793 H   0  0  0  0  0  0  0  0  0  0  0  0
   28.1937   13.0958   19.9973 H   0  0  0  0  0  0  0  0  0  0  0  0
   27.6337   12.0852   18.6098 H   0  0  0  0  0  0  0  0  0  0  0  0
  1  2  1  0
  2  3  1  0
  3  4  1  0
  3  5  2  0
  5  6  1  0
  6  7  1  1
  6  8  1  0
  8  9  2  0
  9 10  1  0
 10 11  1  0
 11 12  1  0
 12 13  2  0
 12 14  1  0
 14 15  2  0
 15 16  1  0
 16 17  2  0
 17 18  1  0
 17 19  1  0
 19 20  2  0
 10 21  2  0
 21 22  1  0
 22 23  2  0
 23 24  1  0
  6 25  1  0
 25 26  1  0
 26 27  2  0
 26 28  2  0
 26  2  1  0
 23  8  1  0
 20 14  1  0
  1 29  1  0
  1 30  1  0
  1 31  1  0
  4 32  1  0
  4 33  1  0
  7 34  1  0
  7 35  1  0
  7 36  1  0
  9 37  1  0
 11 38  1  0
 15 39  1  0
 16 40  1  0
 19 41  1  0
 21 42  1  0
 22 43  1  0
 25 44  1  0
 25 45  1  0
M  END
>  <meeko>  (13)
{"is_sidechain": false}

>  <source_group>  (13)
BACE1 canonical

>  <source_system>  (13)
BACE1_verubecestat

>  <source_run>  (13)
canonical_obabel_redock_seed20260825_ex32

>  <source_seed>  (13)
20260825

>  <vina_pose_rank>  (13)
13

>  <vina_affinity_kcal_mol>  (13)
-7.4770000000000003

>  <vina_rmsd_to_crystal_angstrom>  (13)
7.8830999999999998

$$$$
BACE1_verubecestat__canonical_obabel_redock_seed20260825_ex32__pose14
     RDKit          3D

 45 47  0  0  0  0  0  0  0  0999 V2000
   27.1490   15.5860   24.1410 C   0  0  0  0  0  0  0  0  0  0  0  0
   28.0370   15.2240   23.0180 N   0  0  0  0  0  0  0  0  0  0  0  0
   27.7770   15.5970   21.6810 C   0  0  0  0  0  0  0  0  0  0  0  0
   26.7160   16.4510   21.5380 N   0  0  0  0  0  0  0  0  0  0  0  0
   28.4850   15.1980   20.6700 N   0  0  0  0  0  0  0  0  0  0  0  0
   29.5550   14.2130   20.8220 C   0  0  2  0  0  0  0  0  0  0  0  0
   30.3830   14.4050   19.5490 C   0  0  0  0  0  0  0  0  0  0  0  0
   29.0210   12.7890   20.8510 C   0  0  0  0  0  0  0  0  0  0  0  0
   27.6580   12.5350   20.9970 C   0  0  0  0  0  0  0  0  0  0  0  0
   27.1480   11.2570   21.0290 C   0  0  0  0  0  0  0  0  0  0  0  0
   25.7600   11.1390   21.1780 N   0  0  0  0  0  0  0  0  0  0  0  0
   24.8120   10.8790   20.2040 C   0  0  0  0  0  0  0  0  0  0  0  0
   25.0320   10.8350   19.0010 O   0  0  0  0  0  0  0  0  0  0  0  0
   23.4450   10.6040   20.7090 C   0  0  0  0  0  0  0  0  0  0  0  0
   22.3620   10.6860   19.8500 C   0  0  0  0  0  0  0  0  0  0  0  0
   21.1090   10.4220   20.3750 C   0  0  0  0  0  0  0  0  0  0  0  0
   20.9780   10.0870   21.7090 C   0  0  0  0  0  0  0  0  0  0  0  0
   19.7810    9.8310   22.2640 F   0  0  0  0  0  0  0  0  0  0  0  0
   22.1140   10.0370   22.4840 C   0  0  0  0  0  0  0  0  0  0  0  0
   23.3420   10.2940   22.0050 N   0  0  0  0  0  0  0  0  0  0  0  0
   27.9890   10.1590   20.8910 C   0  0  0  0  0  0  0  0  0  0  0  0
   29.3450   10.3930   20.7480 C   0  0  0  0  0  0  0  0  0  0  0  0
   29.8470   11.6800   20.7500 C   0  0  0  0  0  0  0  0  0  0  0  0
   31.1850   11.8810   20.6380 F   0  0  0  0  0  0  0  0  0  0  0  0
   30.4430   14.5880   21.9880 C   0  0  0  0  0  0  0  0  0  0  0  0
   29.5340   14.5320   23.5120 S   0  0  0  0  0  0  0  0  0  0  0  0
   30.1700   15.4800   24.4090 O   0  0  0  0  0  0  0  0  0  0  0  0
   29.1890   13.1920   23.8720 O   0  0  0  0  0  0  0  0  0  0  0  0
   27.6588   15.3782   25.0933 H   0  0  0  0  0  0  0  0  0  0  0  0
   26.9024   16.6564   24.0831 H   0  0  0  0  0  0  0  0  0  0  0  0
   26.2243   14.9931   24.0831 H   0  0  0  0  0  0  0  0  0  0  0  0
   26.4570   16.7680   20.6430 H   0  0  0  0  0  0  0  0  0  0  0  0
   26.2130   16.7470   22.3300 H   0  0  0  0  0  0  0  0  0  0  0  0
   31.4216   14.6458   19.8199 H   0  0  0  0  0  0  0  0  0  0  0  0
   30.3641   13.4786   18.9561 H   0  0  0  0  0  0  0  0  0  0  0  0
   29.9584   15.2285   18.9561 H   0  0  0  0  0  0  0  0  0  0  0  0
   26.9663   13.3853   21.0898 H   0  0  0  0  0  0  0  0  0  0  0  0
   25.4150   11.2560   22.0930 H   0  0  0  0  0  0  0  0  0  0  0  0
   22.4927   10.9510   18.7904 H   0  0  0  0  0  0  0  0  0  0  0  0
   20.2188   10.4788   19.7313 H   0  0  0  0  0  0  0  0  0  0  0  0
   22.0113    9.7738   23.5471 H   0  0  0  0  0  0  0  0  0  0  0  0
   27.5884    9.1346   20.8954 H   0  0  0  0  0  0  0  0  0  0  0  0
   30.0329    9.5426   20.6311 H   0  0  0  0  0  0  0  0  0  0  0  0
   31.2843   13.8815   22.0431 H   0  0  0  0  0  0  0  0  0  0  0  0
   30.8143   15.6121   21.8349 H   0  0  0  0  0  0  0  0  0  0  0  0
  1  2  1  0
  2  3  1  0
  3  4  1  0
  3  5  2  0
  5  6  1  0
  6  7  1  6
  6  8  1  0
  8  9  2  0
  9 10  1  0
 10 11  1  0
 11 12  1  0
 12 13  2  0
 12 14  1  0
 14 15  2  0
 15 16  1  0
 16 17  2  0
 17 18  1  0
 17 19  1  0
 19 20  2  0
 10 21  2  0
 21 22  1  0
 22 23  2  0
 23 24  1  0
  6 25  1  0
 25 26  1  0
 26 27  2  0
 26 28  2  0
 26  2  1  0
 23  8  1  0
 20 14  1  0
  1 29  1  0
  1 30  1  0
  1 31  1  0
  4 32  1  0
  4 33  1  0
  7 34  1  0
  7 35  1  0
  7 36  1  0
  9 37  1  0
 11 38  1  0
 15 39  1  0
 16 40  1  0
 19 41  1  0
 21 42  1  0
 22 43  1  0
 25 44  1  0
 25 45  1  0
M  END
>  <meeko>  (14)
{"is_sidechain": false}

>  <source_group>  (14)
BACE1 canonical

>  <source_system>  (14)
BACE1_verubecestat

>  <source_run>  (14)
canonical_obabel_redock_seed20260825_ex32

>  <source_seed>  (14)
20260825

>  <vina_pose_rank>  (14)
14

>  <vina_affinity_kcal_mol>  (14)
-7.4749999999999996

>  <vina_rmsd_to_crystal_angstrom>  (14)
7.6985000000000001

$$$$
BACE1_verubecestat__canonical_obabel_redock_seed20260825_ex32__pose15
     RDKit          3D

 45 47  0  0  0  0  0  0  0  0999 V2000
   19.7620   12.5580   29.9170 C   0  0  0  0  0  0  0  0  0  0  0  0
   19.4610   13.1750   28.6100 N   0  0  0  0  0  0  0  0  0  0  0  0
   18.1440   13.3950   28.1470 C   0  0  0  0  0  0  0  0  0  0  0  0
   17.1760   13.1260   29.0770 N   0  0  0  0  0  0  0  0  0  0  0  0
   17.8610   13.8350   26.9600 N   0  0  0  0  0  0  0  0  0  0  0  0
   18.8950   14.0270   25.9450 C   0  0  2  0  0  0  0  0  0  0  0  0
   18.2190   14.9640   24.9390 C   0  0  0  0  0  0  0  0  0  0  0  0
   19.2530   12.7280   25.2410 C   0  0  0  0  0  0  0  0  0  0  0  0
   20.4590   12.5890   24.5540 C   0  0  0  0  0  0  0  0  0  0  0  0
   20.8070   11.4260   23.9060 C   0  0  0  0  0  0  0  0  0  0  0  0
   22.0480   11.4180   23.2550 N   0  0  0  0  0  0  0  0  0  0  0  0
   22.3790   11.9770   22.0340 C   0  0  0  0  0  0  0  0  0  0  0  0
   21.5830   12.4730   21.2470 O   0  0  0  0  0  0  0  0  0  0  0  0
   23.8270   11.9850   21.7120 C   0  0  0  0  0  0  0  0  0  0  0  0
   24.6590   12.9260   22.2930 C   0  0  0  0  0  0  0  0  0  0  0  0
   26.0010   12.8880   21.9560 C   0  0  0  0  0  0  0  0  0  0  0  0
   26.4610   11.9310   21.0720 C   0  0  0  0  0  0  0  0  0  0  0  0
   27.7530   11.8610   20.7070 F   0  0  0  0  0  0  0  0  0  0  0  0
   25.5550   11.0420   20.5410 C   0  0  0  0  0  0  0  0  0  0  0  0
   24.2460   11.0570   20.8450 N   0  0  0  0  0  0  0  0  0  0  0  0
   19.9620   10.3240   23.9350 C   0  0  0  0  0  0  0  0  0  0  0  0
   18.7600   10.4440   24.6100 C   0  0  0  0  0  0  0  0  0  0  0  0
   18.4090   11.6280   25.2280 C   0  0  0  0  0  0  0  0  0  0  0  0
   17.2110   11.7290   25.8580 F   0  0  0  0  0  0  0  0  0  0  0  0
   20.0670   14.7810   26.5340 C   0  0  0  0  0  0  0  0  0  0  0  0
   20.8410   13.8310   27.8180 S   0  0  0  0  0  0  0  0  0  0  0  0
   21.4470   14.7850   28.7300 O   0  0  0  0  0  0  0  0  0  0  0  0
   21.5130   12.6830   27.2930 O   0  0  0  0  0  0  0  0  0  0  0  0
   19.4342   13.2299   30.7239 H   0  0  0  0  0  0  0  0  0  0  0  0
   19.2308   11.5984   30.0005 H   0  0  0  0  0  0  0  0  0  0  0  0
   20.8452   12.3860   30.0005 H   0  0  0  0  0  0  0  0  0  0  0  0
   16.2260   13.2490   28.8480 H   0  0  0  0  0  0  0  0  0  0  0  0
   17.4300   12.8110   29.9750 H   0  0  0  0  0  0  0  0  0  0  0  0
   17.6588   15.7406   25.4804 H   0  0  0  0  0  0  0  0  0  0  0  0
   18.9848   15.4376   24.3071 H   0  0  0  0  0  0  0  0  0  0  0  0
   17.5281   14.3866   24.3071 H   0  0  0  0  0  0  0  0  0  0  0  0
   21.1566   13.4392   24.5294 H   0  0  0  0  0  0  0  0  0  0  0  0
   22.7780   10.9560   23.7280 H   0  0  0  0  0  0  0  0  0  0  0  0
   24.2684   13.6761   22.9964 H   0  0  0  0  0  0  0  0  0  0  0  0
   26.6996   13.6180   22.3909 H   0  0  0  0  0  0  0  0  0  0  0  0
   25.9196   10.2825   19.8337 H   0  0  0  0  0  0  0  0  0  0  0  0
   20.2400    9.3838   23.4362 H   0  0  0  0  0  0  0  0  0  0  0  0
   18.0748    9.5846   24.6549 H   0  0  0  0  0  0  0  0  0  0  0  0
   20.8020   14.9830   25.7409 H   0  0  0  0  0  0  0  0  0  0  0  0
   19.7009   15.7251   26.9637 H   0  0  0  0  0  0  0  0  0  0  0  0
  1  2  1  0
  2  3  1  0
  3  4  1  0
  3  5  2  0
  5  6  1  0
  6  7  1  6
  6  8  1  0
  8  9  2  0
  9 10  1  0
 10 11  1  0
 11 12  1  0
 12 13  2  0
 12 14  1  0
 14 15  2  0
 15 16  1  0
 16 17  2  0
 17 18  1  0
 17 19  1  0
 19 20  2  0
 10 21  2  0
 21 22  1  0
 22 23  2  0
 23 24  1  0
  6 25  1  0
 25 26  1  0
 26 27  2  0
 26 28  2  0
 26  2  1  0
 23  8  1  0
 20 14  1  0
  1 29  1  0
  1 30  1  0
  1 31  1  0
  4 32  1  0
  4 33  1  0
  7 34  1  0
  7 35  1  0
  7 36  1  0
  9 37  1  0
 11 38  1  0
 15 39  1  0
 16 40  1  0
 19 41  1  0
 21 42  1  0
 22 43  1  0
 25 44  1  0
 25 45  1  0
M  END
>  <meeko>  (15)
{"is_sidechain": false}

>  <source_group>  (15)
BACE1 canonical

>  <source_system>  (15)
BACE1_verubecestat

>  <source_run>  (15)
canonical_obabel_redock_seed20260825_ex32

>  <source_seed>  (15)
20260825

>  <vina_pose_rank>  (15)
15

>  <vina_affinity_kcal_mol>  (15)
-7.4740000000000002

>  <vina_rmsd_to_crystal_angstrom>  (15)
6.2324000000000002

$$$$
BACE1_verubecestat__canonical_obabel_redock_seed20260825_ex32__pose16
     RDKit          3D

 45 47  0  0  0  0  0  0  0  0999 V2000
   27.4870   11.5090   19.9480 C   0  0  0  0  0  0  0  0  0  0  0  0
   26.0480   11.8360   19.9550 N   0  0  0  0  0  0  0  0  0  0  0  0
   25.5570   13.1560   19.8420 C   0  0  0  0  0  0  0  0  0  0  0  0
   26.5250   14.0870   19.5730 N   0  0  0  0  0  0  0  0  0  0  0  0
   24.3040   13.4730   19.9550 N   0  0  0  0  0  0  0  0  0  0  0  0
   23.2940   12.4870   20.3350 C   0  0  2  0  0  0  0  0  0  0  0  0
   21.9860   13.1450   19.8880 C   0  0  0  0  0  0  0  0  0  0  0  0
   23.2460   12.2710   21.8400 C   0  0  0  0  0  0  0  0  0  0  0  0
   24.1710   12.8810   22.6850 C   0  0  0  0  0  0  0  0  0  0  0  0
   24.1530   12.7020   24.0490 C   0  0  0  0  0  0  0  0  0  0  0  0
   25.1380   13.3740   24.7840 N   0  0  0  0  0  0  0  0  0  0  0  0
   26.4880   13.4890   24.5040 C   0  0  0  0  0  0  0  0  0  0  0  0
   27.0740   12.8940   23.6090 O   0  0  0  0  0  0  0  0  0  0  0  0
   27.2330   14.4430   25.3600 C   0  0  0  0  0  0  0  0  0  0  0  0
   26.5990   15.5710   25.8530 C   0  0  0  0  0  0  0  0  0  0  0  0
   27.3430   16.4280   26.6440 C   0  0  0  0  0  0  0  0  0  0  0  0
   28.6660   16.1390   26.9170 C   0  0  0  0  0  0  0  0  0  0  0  0
   29.4300   16.9470   27.6720 F   0  0  0  0  0  0  0  0  0  0  0  0
   29.2100   14.9960   26.3760 C   0  0  0  0  0  0  0  0  0  0  0  0
   28.5150   14.1480   25.6000 N   0  0  0  0  0  0  0  0  0  0  0  0
   23.1780   11.9080   24.6410 C   0  0  0  0  0  0  0  0  0  0  0  0
   22.2530   11.2920   23.8170 C   0  0  0  0  0  0  0  0  0  0  0  0
   22.3030   11.4550   22.4470 C   0  0  0  0  0  0  0  0  0  0  0  0
   21.4020   10.8160   21.6590 F   0  0  0  0  0  0  0  0  0  0  0  0
   23.4610   11.2290   19.5120 C   0  0  0  0  0  0  0  0  0  0  0  0
   25.0220   10.4570   19.8560 S   0  0  0  0  0  0  0  0  0  0  0  0
   25.3960    9.7280   18.6580 O   0  0  0  0  0  0  0  0  0  0  0  0
   25.0600    9.9080   21.1750 O   0  0  0  0  0  0  0  0  0  0  0  0
   27.8493   11.4267   20.9833 H   0  0  0  0  0  0  0  0  0  0  0  0
   27.6431   10.5525   19.4277 H   0  0  0  0  0  0  0  0  0  0  0  0
   28.0412   12.3041   19.4277 H   0  0  0  0  0  0  0  0  0  0  0  0
   26.2810   15.0360   19.4760 H   0  0  0  0  0  0  0  0  0  0  0  0
   27.4640   13.8080   19.4760 H   0  0  0  0  0  0  0  0  0  0  0  0
   21.4022   13.4387   20.7728 H   0  0  0  0  0  0  0  0  0  0  0  0
   22.2116   14.0369   19.2850 H   0  0  0  0  0  0  0  0  0  0  0  0
   21.4044   12.4322   19.2850 H   0  0  0  0  0  0  0  0  0  0  0  0
   24.9436   13.5291   22.2456 H   0  0  0  0  0  0  0  0  0  0  0  0
   24.8290   13.8230   25.6050 H   0  0  0  0  0  0  0  0  0  0  0  0
   25.5431   15.7779   25.6242 H   0  0  0  0  0  0  0  0  0  0  0  0
   26.8818   17.3382   27.0550 H   0  0  0  0  0  0  0  0  0  0  0  0
   30.2643   14.7661   26.5894 H   0  0  0  0  0  0  0  0  0  0  0  0
   23.1428   11.7734   25.7322 H   0  0  0  0  0  0  0  0  0  0  0  0
   21.4664   10.6633   24.2598 H   0  0  0  0  0  0  0  0  0  0  0  0
   22.6496   10.5275   19.7560 H   0  0  0  0  0  0  0  0  0  0  0  0
   23.4262   11.4967   18.4456 H   0  0  0  0  0  0  0  0  0  0  0  0
  1  2  1  0
  2  3  1  0
  3  4  1  0
  3  5  2  0
  5  6  1  0
  6  7  1  6
  6  8  1  0
  8  9  2  0
  9 10  1  0
 10 11  1  0
 11 12  1  0
 12 13  2  0
 12 14  1  0
 14 15  2  0
 15 16  1  0
 16 17  2  0
 17 18  1  0
 17 19  1  0
 19 20  2  0
 10 21  2  0
 21 22  1  0
 22 23  2  0
 23 24  1  0
  6 25  1  0
 25 26  1  0
 26 27  2  0
 26 28  2  0
 26  2  1  0
 23  8  1  0
 20 14  1  0
  1 29  1  0
  1 30  1  0
  1 31  1  0
  4 32  1  0
  4 33  1  0
  7 34  1  0
  7 35  1  0
  7 36  1  0
  9 37  1  0
 11 38  1  0
 15 39  1  0
 16 40  1  0
 19 41  1  0
 21 42  1  0
 22 43  1  0
 25 44  1  0
 25 45  1  0
M  END
>  <meeko>  (16)
{"is_sidechain": false}

>  <source_group>  (16)
BACE1 canonical

>  <source_system>  (16)
BACE1_verubecestat

>  <source_run>  (16)
canonical_obabel_redock_seed20260825_ex32

>  <source_seed>  (16)
20260825

>  <vina_pose_rank>  (16)
16

>  <vina_affinity_kcal_mol>  (16)
-7.468

>  <vina_rmsd_to_crystal_angstrom>  (16)
5.8959999999999999

$$$$
BACE1_verubecestat__canonical_obabel_redock_seed20260825_ex32__pose17
     RDKit          3D

 45 47  0  0  0  0  0  0  0  0999 V2000
   25.0580   13.8190   19.1790 C   0  0  0  0  0  0  0  0  0  0  0  0
   26.3450   13.3940   19.7630 N   0  0  0  0  0  0  0  0  0  0  0  0
   26.6380   12.0500   20.0860 C   0  0  0  0  0  0  0  0  0  0  0  0
   25.6860   11.1590   19.6700 N   0  0  0  0  0  0  0  0  0  0  0  0
   27.7180   11.6740   20.6990 N   0  0  0  0  0  0  0  0  0  0  0  0
   28.6810   12.6420   21.2220 C   0  0  2  0  0  0  0  0  0  0  0  0
   29.9470   11.8010   21.4070 C   0  0  0  0  0  0  0  0  0  0  0  0
   28.2570   13.1950   22.5740 C   0  0  0  0  0  0  0  0  0  0  0  0
   27.0250   12.8620   23.1340 C   0  0  0  0  0  0  0  0  0  0  0  0
   26.6140   13.3500   24.3530 C   0  0  0  0  0  0  0  0  0  0  0  0
   25.3540   12.9350   24.8040 N   0  0  0  0  0  0  0  0  0  0  0  0
   24.2230   12.6650   24.0550 C   0  0  0  0  0  0  0  0  0  0  0  0
   24.1060   12.8750   22.8540 O   0  0  0  0  0  0  0  0  0  0  0  0
   23.1030   12.0410   24.8010 C   0  0  0  0  0  0  0  0  0  0  0  0
   22.3940   10.9950   24.2360 C   0  0  0  0  0  0  0  0  0  0  0  0
   21.3590   10.4520   24.9760 C   0  0  0  0  0  0  0  0  0  0  0  0
   21.0710   10.9550   26.2300 C   0  0  0  0  0  0  0  0  0  0  0  0
   20.0690   10.4660   26.9810 F   0  0  0  0  0  0  0  0  0  0  0  0
   21.8290   12.0020   26.7040 C   0  0  0  0  0  0  0  0  0  0  0  0
   22.8360   12.5530   26.0070 N   0  0  0  0  0  0  0  0  0  0  0  0
   27.4410   14.1890   25.0900 C   0  0  0  0  0  0  0  0  0  0  0  0
   28.6670   14.5330   24.5480 C   0  0  0  0  0  0  0  0  0  0  0  0
   29.0520   14.0610   23.3080 C   0  0  0  0  0  0  0  0  0  0  0  0
   30.2480   14.4380   22.7860 F   0  0  0  0  0  0  0  0  0  0  0  0
   28.9910   13.6850   20.1720 C   0  0  0  0  0  0  0  0  0  0  0  0
   27.5420   14.6310   19.7790 S   0  0  0  0  0  0  0  0  0  0  0  0
   27.7040   15.0900   18.4120 O   0  0  0  0  0  0  0  0  0  0  0  0
   27.1500   15.4720   20.8680 O   0  0  0  0  0  0  0  0  0  0  0  0
   24.3486   14.0533   19.9863 H   0  0  0  0  0  0  0  0  0  0  0  0
   25.2147   14.7131   18.5577 H   0  0  0  0  0  0  0  0  0  0  0  0
   24.6515   13.0074   18.5577 H   0  0  0  0  0  0  0  0  0  0  0  0
   25.8000   10.1970   19.8490 H   0  0  0  0  0  0  0  0  0  0  0  0
   24.8870   11.4790   19.1920 H   0  0  0  0  0  0  0  0  0  0  0  0
   30.1458   11.6689   22.4808 H   0  0  0  0  0  0  0  0  0  0  0  0
   29.8054   10.8168   20.9366 H   0  0  0  0  0  0  0  0  0  0  0  0
   30.7993   12.3130   20.9366 H   0  0  0  0  0  0  0  0  0  0  0  0
   26.3572   12.1847   22.5815 H   0  0  0  0  0  0  0  0  0  0  0  0
   25.2620   12.8210   25.7770 H   0  0  0  0  0  0  0  0  0  0  0  0
   22.6441   10.6101   23.2364 H   0  0  0  0  0  0  0  0  0  0  0  0
   20.7661    9.6208   24.5665 H   0  0  0  0  0  0  0  0  0  0  0  0
   21.5989   12.4063   27.7008 H   0  0  0  0  0  0  0  0  0  0  0  0
   27.1305   14.5683   26.0747 H   0  0  0  0  0  0  0  0  0  0  0  0
   29.3441   15.1912   25.1122 H   0  0  0  0  0  0  0  0  0  0  0  0
   29.7706   14.3607   20.5536 H   0  0  0  0  0  0  0  0  0  0  0  0
   29.3387   13.1764   19.2607 H   0  0  0  0  0  0  0  0  0  0  0  0
  1  2  1  0
  2  3  1  0
  3  4  1  0
  3  5  2  0
  5  6  1  0
  6  7  1  1
  6  8  1  0
  8  9  2  0
  9 10  1  0
 10 11  1  0
 11 12  1  0
 12 13  2  0
 12 14  1  0
 14 15  2  0
 15 16  1  0
 16 17  2  0
 17 18  1  0
 17 19  1  0
 19 20  2  0
 10 21  2  0
 21 22  1  0
 22 23  2  0
 23 24  1  0
  6 25  1  0
 25 26  1  0
 26 27  2  0
 26 28  2  0
 26  2  1  0
 23  8  1  0
 20 14  1  0
  1 29  1  0
  1 30  1  0
  1 31  1  0
  4 32  1  0
  4 33  1  0
  7 34  1  0
  7 35  1  0
  7 36  1  0
  9 37  1  0
 11 38  1  0
 15 39  1  0
 16 40  1  0
 19 41  1  0
 21 42  1  0
 22 43  1  0
 25 44  1  0
 25 45  1  0
M  END
>  <meeko>  (17)
{"is_sidechain": false}

>  <source_group>  (17)
BACE1 canonical

>  <source_system>  (17)
BACE1_verubecestat

>  <source_run>  (17)
canonical_obabel_redock_seed20260825_ex32

>  <source_seed>  (17)
20260825

>  <vina_pose_rank>  (17)
17

>  <vina_affinity_kcal_mol>  (17)
-7.4199999999999999

>  <vina_rmsd_to_crystal_angstrom>  (17)
7.7431000000000001

$$$$
BACE1_verubecestat__canonical_obabel_redock_seed20260825_ex32__pose18
     RDKit          3D

 45 47  0  0  0  0  0  0  0  0999 V2000
   28.4950   14.9100   25.7300 C   0  0  0  0  0  0  0  0  0  0  0  0
   28.3370   15.1910   24.2890 N   0  0  0  0  0  0  0  0  0  0  0  0
   27.3900   16.1090   23.7830 C   0  0  0  0  0  0  0  0  0  0  0  0
   26.7380   16.8250   24.7510 N   0  0  0  0  0  0  0  0  0  0  0  0
   27.1630   16.2880   22.5180 N   0  0  0  0  0  0  0  0  0  0  0  0
   27.7950   15.4530   21.4990 C   0  0  2  0  0  0  0  0  0  0  0  0
   27.6360   16.2870   20.2250 C   0  0  0  0  0  0  0  0  0  0  0  0
   27.0680   14.1300   21.3130 C   0  0  0  0  0  0  0  0  0  0  0  0
   25.9540   13.8060   22.0880 C   0  0  0  0  0  0  0  0  0  0  0  0
   25.2790   12.6150   21.9440 C   0  0  0  0  0  0  0  0  0  0  0  0
   24.1750   12.4150   22.7820 N   0  0  0  0  0  0  0  0  0  0  0  0
   22.8310   12.5180   22.4690 C   0  0  0  0  0  0  0  0  0  0  0  0
   22.3850   12.9370   21.4090 O   0  0  0  0  0  0  0  0  0  0  0  0
   21.8980   12.0380   23.5180 C   0  0  0  0  0  0  0  0  0  0  0  0
   20.7650   11.3270   23.1620 C   0  0  0  0  0  0  0  0  0  0  0  0
   19.9290   10.9050   24.1810 C   0  0  0  0  0  0  0  0  0  0  0  0
   20.2430   11.1970   25.4940 C   0  0  0  0  0  0  0  0  0  0  0  0
   19.4570   10.8170   26.5150 F   0  0  0  0  0  0  0  0  0  0  0  0
   21.3890   11.9160   25.7470 C   0  0  0  0  0  0  0  0  0  0  0  0
   22.2170   12.3430   24.7800 N   0  0  0  0  0  0  0  0  0  0  0  0
   25.6800   11.6900   20.9880 C   0  0  0  0  0  0  0  0  0  0  0  0
   26.7850   11.9940   20.2130 C   0  0  0  0  0  0  0  0  0  0  0  0
   27.4720   13.1780   20.3900 C   0  0  0  0  0  0  0  0  0  0  0  0
   28.5720   13.4380   19.6370 F   0  0  0  0  0  0  0  0  0  0  0  0
   29.2780   15.3360   21.7690 C   0  0  0  0  0  0  0  0  0  0  0  0
   29.5710   14.5000   23.3080 S   0  0  0  0  0  0  0  0  0  0  0  0
   30.8430   14.9880   23.8090 O   0  0  0  0  0  0  0  0  0  0  0  0
   29.2140   13.1180   23.2330 O   0  0  0  0  0  0  0  0  0  0  0  0
   28.0382   15.7224   26.3142 H   0  0  0  0  0  0  0  0  0  0  0  0
   27.9994   13.9589   25.9746 H   0  0  0  0  0  0  0  0  0  0  0  0
   29.5651   14.8393   25.9746 H   0  0  0  0  0  0  0  0  0  0  0  0
   26.0580   17.4910   24.4970 H   0  0  0  0  0  0  0  0  0  0  0  0
   26.9490   16.6750   25.7010 H   0  0  0  0  0  0  0  0  0  0  0  0
   27.4363   17.3345   20.4950 H   0  0  0  0  0  0  0  0  0  0  0  0
   28.5610   16.2311   19.6323 H   0  0  0  0  0  0  0  0  0  0  0  0
   26.7965   15.8947   19.6323 H   0  0  0  0  0  0  0  0  0  0  0  0
   25.6028   14.5275   22.8404 H   0  0  0  0  0  0  0  0  0  0  0  0
   24.3810   12.1690   23.7130 H   0  0  0  0  0  0  0  0  0  0  0  0
   20.5376   11.1057   22.1088 H   0  0  0  0  0  0  0  0  0  0  0  0
   19.0162   10.3381   23.9457 H   0  0  0  0  0  0  0  0  0  0  0  0
   21.6387   12.1523   26.7919 H   0  0  0  0  0  0  0  0  0  0  0  0
   25.1352   10.7442   20.8514 H   0  0  0  0  0  0  0  0  0  0  0  0
   27.1209   11.2820   19.4448 H   0  0  0  0  0  0  0  0  0  0  0  0
   29.7498   14.7679   20.9538 H   0  0  0  0  0  0  0  0  0  0  0  0
   29.7078   16.3468   21.8279 H   0  0  0  0  0  0  0  0  0  0  0  0
  1  2  1  0
  2  3  1  0
  3  4  1  0
  3  5  2  0
  5  6  1  0
  6  7  1  6
  6  8  1  0
  8  9  2  0
  9 10  1  0
 10 11  1  0
 11 12  1  0
 12 13  2  0
 12 14  1  0
 14 15  2  0
 15 16  1  0
 16 17  2  0
 17 18  1  0
 17 19  1  0
 19 20  2  0
 10 21  2  0
 21 22  1  0
 22 23  2  0
 23 24  1  0
  6 25  1  0
 25 26  1  0
 26 27  2  0
 26 28  2  0
 26  2  1  0
 23  8  1  0
 20 14  1  0
  1 29  1  0
  1 30  1  0
  1 31  1  0
  4 32  1  0
  4 33  1  0
  7 34  1  0
  7 35  1  0
  7 36  1  0
  9 37  1  0
 11 38  1  0
 15 39  1  0
 16 40  1  0
 19 41  1  0
 21 42  1  0
 22 43  1  0
 25 44  1  0
 25 45  1  0
M  END
>  <meeko>  (18)
{"is_sidechain": false}

>  <source_group>  (18)
BACE1 canonical

>  <source_system>  (18)
BACE1_verubecestat

>  <source_run>  (18)
canonical_obabel_redock_seed20260825_ex32

>  <source_seed>  (18)
20260825

>  <vina_pose_rank>  (18)
18

>  <vina_affinity_kcal_mol>  (18)
-7.4119999999999999

>  <vina_rmsd_to_crystal_angstrom>  (18)
7.8875000000000002

$$$$
BACE1_verubecestat__canonical_obabel_redock_seed20260825_ex32__pose19
     RDKit          3D

 45 47  0  0  0  0  0  0  0  0999 V2000
   17.0800   18.1040   27.1090 C   0  0  0  0  0  0  0  0  0  0  0  0
   16.6680   16.7630   26.6500 N   0  0  0  0  0  0  0  0  0  0  0  0
   15.9060   15.8780   27.4440 C   0  0  0  0  0  0  0  0  0  0  0  0
   15.4540   16.4290   28.6130 N   0  0  0  0  0  0  0  0  0  0  0  0
   15.6280   14.6580   27.1010 N   0  0  0  0  0  0  0  0  0  0  0  0
   16.1930   14.0500   25.8980 C   0  0  2  0  0  0  0  0  0  0  0  0
   15.2630   12.8610   25.6440 C   0  0  0  0  0  0  0  0  0  0  0  0
   17.6030   13.5310   26.1300 C   0  0  0  0  0  0  0  0  0  0  0  0
   18.4510   13.2470   25.0600 C   0  0  0  0  0  0  0  0  0  0  0  0
   19.7310   12.7720   25.2410 C   0  0  0  0  0  0  0  0  0  0  0  0
   20.4790   12.5300   24.0810 N   0  0  0  0  0  0  0  0  0  0  0  0
   20.4920   11.3940   23.2920 C   0  0  0  0  0  0  0  0  0  0  0  0
   19.9290   10.3420   23.5620 O   0  0  0  0  0  0  0  0  0  0  0  0
   21.2310   11.5210   22.0120 C   0  0  0  0  0  0  0  0  0  0  0  0
   21.8620   12.7110   21.6930 C   0  0  0  0  0  0  0  0  0  0  0  0
   22.5340   12.7750   20.4860 C   0  0  0  0  0  0  0  0  0  0  0  0
   22.5600   11.6730   19.6530 C   0  0  0  0  0  0  0  0  0  0  0  0
   23.1920   11.6910   18.4680 F   0  0  0  0  0  0  0  0  0  0  0  0
   21.8980   10.5350   20.0550 C   0  0  0  0  0  0  0  0  0  0  0  0
   21.2320   10.4450   21.2180 N   0  0  0  0  0  0  0  0  0  0  0  0
   20.2350   12.5790   26.5200 C   0  0  0  0  0  0  0  0  0  0  0  0
   19.4070   12.8520   27.5940 C   0  0  0  0  0  0  0  0  0  0  0  0
   18.1140   13.2970   27.3970 C   0  0  0  0  0  0  0  0  0  0  0  0
   17.3120   13.5300   28.4680 F   0  0  0  0  0  0  0  0  0  0  0  0
   16.0420   14.9900   24.7220 C   0  0  0  0  0  0  0  0  0  0  0  0
   16.9780   16.4750   24.9810 S   0  0  0  0  0  0  0  0  0  0  0  0
   16.3070   17.5230   24.2330 O   0  0  0  0  0  0  0  0  0  0  0  0
   18.3850   16.2270   24.9320 O   0  0  0  0  0  0  0  0  0  0  0  0
   17.0876   18.1288   28.2087 H   0  0  0  0  0  0  0  0  0  0  0  0
   18.0882   18.3275   26.7302 H   0  0  0  0  0  0  0  0  0  0  0  0
   16.3712   18.8550   26.7302 H   0  0  0  0  0  0  0  0  0  0  0  0
   14.9130   15.8900   29.2350 H   0  0  0  0  0  0  0  0  0  0  0  0
   15.6700   17.3640   28.8330 H   0  0  0  0  0  0  0  0  0  0  0  0
   14.9342   12.4406   26.6059 H   0  0  0  0  0  0  0  0  0  0  0  0
   14.3858   13.1973   25.0718 H   0  0  0  0  0  0  0  0  0  0  0  0
   15.8007   12.0906   25.0718 H   0  0  0  0  0  0  0  0  0  0  0  0
   18.0847   13.4080   24.0354 H   0  0  0  0  0  0  0  0  0  0  0  0
   21.0720   13.2610   23.7920 H   0  0  0  0  0  0  0  0  0  0  0  0
   21.8301   13.5739   22.3744 H   0  0  0  0  0  0  0  0  0  0  0  0
   23.0470   13.7018   20.1896 H   0  0  0  0  0  0  0  0  0  0  0  0
   21.9152    9.6573   19.3921 H   0  0  0  0  0  0  0  0  0  0  0  0
   21.2630   12.2194   26.6749 H   0  0  0  0  0  0  0  0  0  0  0  0
   19.7830   12.7129   28.6183 H   0  0  0  0  0  0  0  0  0  0  0  0
   16.4033   14.4898   23.8113 H   0  0  0  0  0  0  0  0  0  0  0  0
   14.9798   15.2557   24.6161 H   0  0  0  0  0  0  0  0  0  0  0  0
  1  2  1  0
  2  3  1  0
  3  4  1  0
  3  5  2  0
  5  6  1  0
  6  7  1  6
  6  8  1  0
  8  9  2  0
  9 10  1  0
 10 11  1  0
 11 12  1  0
 12 13  2  0
 12 14  1  0
 14 15  2  0
 15 16  1  0
 16 17  2  0
 17 18  1  0
 17 19  1  0
 19 20  2  0
 10 21  2  0
 21 22  1  0
 22 23  2  0
 23 24  1  0
  6 25  1  0
 25 26  1  0
 26 27  2  0
 26 28  2  0
 26  2  1  0
 23  8  1  0
 20 14  1  0
  1 29  1  0
  1 30  1  0
  1 31  1  0
  4 32  1  0
  4 33  1  0
  7 34  1  0
  7 35  1  0
  7 36  1  0
  9 37  1  0
 11 38  1  0
 15 39  1  0
 16 40  1  0
 19 41  1  0
 21 42  1  0
 22 43  1  0
 25 44  1  0
 25 45  1  0
M  END
>  <meeko>  (19)
{"is_sidechain": false}

>  <source_group>  (19)
BACE1 canonical

>  <source_system>  (19)
BACE1_verubecestat

>  <source_run>  (19)
canonical_obabel_redock_seed20260825_ex32

>  <source_seed>  (19)
20260825

>  <vina_pose_rank>  (19)
19

>  <vina_affinity_kcal_mol>  (19)
-7.4009999999999998

>  <vina_rmsd_to_crystal_angstrom>  (19)
8.4999000000000002

$$$$
BACE1_verubecestat__canonical_obabel_redock_seed20260825_ex32__pose20
     RDKit          3D

 45 47  0  0  0  0  0  0  0  0999 V2000
   28.5100   13.3330   23.8310 C   0  0  0  0  0  0  0  0  0  0  0  0
   28.4440   14.4260   22.8410 N   0  0  0  0  0  0  0  0  0  0  0  0
   27.5700   15.5280   22.9680 C   0  0  0  0  0  0  0  0  0  0  0  0
   26.8990   15.5710   24.1610 N   0  0  0  0  0  0  0  0  0  0  0  0
   27.4210   16.4400   22.0570 N   0  0  0  0  0  0  0  0  0  0  0  0
   28.0690   16.3340   20.7510 C   0  0  2  0  0  0  0  0  0  0  0  0
   28.0190   17.7710   20.2250 C   0  0  0  0  0  0  0  0  0  0  0  0
   27.2930   15.4360   19.8000 C   0  0  0  0  0  0  0  0  0  0  0  0
   26.2160   14.6740   20.2480 C   0  0  0  0  0  0  0  0  0  0  0  0
   25.4970   13.8500   19.4110 C   0  0  0  0  0  0  0  0  0  0  0  0
   24.4360   13.1400   19.9880 N   0  0  0  0  0  0  0  0  0  0  0  0
   23.1180   13.0800   19.5700 C   0  0  0  0  0  0  0  0  0  0  0  0
   22.6300   13.7600   18.6770 O   0  0  0  0  0  0  0  0  0  0  0  0
   22.2800   12.0740   20.2660 C   0  0  0  0  0  0  0  0  0  0  0  0
   21.9940   10.8670   19.6490 C   0  0  0  0  0  0  0  0  0  0  0  0
   21.2050    9.9660   20.3430 C   0  0  0  0  0  0  0  0  0  0  0  0
   20.7390   10.2870   21.6030 C   0  0  0  0  0  0  0  0  0  0  0  0
   19.9630    9.4480   22.3100 F   0  0  0  0  0  0  0  0  0  0  0  0
   21.0720   11.5150   22.1300 C   0  0  0  0  0  0  0  0  0  0  0  0
   21.8300   12.4120   21.4790 N   0  0  0  0  0  0  0  0  0  0  0  0
   25.8160   13.7690   18.0610 C   0  0  0  0  0  0  0  0  0  0  0  0
   26.8850   14.5160   17.5990 C   0  0  0  0  0  0  0  0  0  0  0  0
   27.6170   15.3130   18.4580 C   0  0  0  0  0  0  0  0  0  0  0  0
   28.6800   16.0140   17.9850 F   0  0  0  0  0  0  0  0  0  0  0  0
   29.5290   15.9760   20.9230 C   0  0  0  0  0  0  0  0  0  0  0  0
   29.6970   14.3710   21.6620 S   0  0  0  0  0  0  0  0  0  0  0  0
   30.9610   14.3750   22.3770 O   0  0  0  0  0  0  0  0  0  0  0  0
   29.2820   13.3330   20.7700 O   0  0  0  0  0  0  0  0  0  0  0  0
   28.4845   13.7558   24.8462 H   0  0  0  0  0  0  0  0  0  0  0  0
   27.6508   12.6602   23.6923 H   0  0  0  0  0  0  0  0  0  0  0  0
   29.4439   12.7685   23.6923 H   0  0  0  0  0  0  0  0  0  0  0  0
   26.2660   16.3020   24.3430 H   0  0  0  0  0  0  0  0  0  0  0  0
   27.0510   14.8710   24.8360 H   0  0  0  0  0  0  0  0  0  0  0  0
   27.9946   18.4712   21.0730 H   0  0  0  0  0  0  0  0  0  0  0  0
   28.9108   17.9683   19.6120 H   0  0  0  0  0  0  0  0  0  0  0  0
   27.1156   17.9059   19.6120 H   0  0  0  0  0  0  0  0  0  0  0  0
   25.9297   14.7327   21.3085 H   0  0  0  0  0  0  0  0  0  0  0  0
   24.6570   12.6170   20.7920 H   0  0  0  0  0  0  0  0  0  0  0  0
   22.3794   10.6335   18.6455 H   0  0  0  0  0  0  0  0  0  0  0  0
   20.9495    8.9959   19.8918 H   0  0  0  0  0  0  0  0  0  0  0  0
   20.6992   11.7734   23.1321 H   0  0  0  0  0  0  0  0  0  0  0  0
   25.2356   13.1297   17.3795 H   0  0  0  0  0  0  0  0  0  0  0  0
   27.1557   14.4748   16.5336 H   0  0  0  0  0  0  0  0  0  0  0  0
   30.0188   15.9734   19.9381 H   0  0  0  0  0  0  0  0  0  0  0  0
   30.0010   16.7202   21.5813 H   0  0  0  0  0  0  0  0  0  0  0  0
  1  2  1  0
  2  3  1  0
  3  4  1  0
  3  5  2  0
  5  6  1  0
  6  7  1  6
  6  8  1  0
  8  9  2  0
  9 10  1  0
 10 11  1  0
 11 12  1  0
 12 13  2  0
 12 14  1  0
 14 15  2  0
 15 16  1  0
 16 17  2  0
 17 18  1  0
 17 19  1  0
 19 20  2  0
 10 21  2  0
 21 22  1  0
 22 23  2  0
 23 24  1  0
  6 25  1  0
 25 26  1  0
 26 27  2  0
 26 28  2  0
 26  2  1  0
 23  8  1  0
 20 14  1  0
  1 29  1  0
  1 30  1  0
  1 31  1  0
  4 32  1  0
  4 33  1  0
  7 34  1  0
  7 35  1  0
  7 36  1  0
  9 37  1  0
 11 38  1  0
 15 39  1  0
 16 40  1  0
 19 41  1  0
 21 42  1  0
 22 43  1  0
 25 44  1  0
 25 45  1  0
M  END
>  <meeko>  (20)
{"is_sidechain": false}

>  <source_group>  (20)
BACE1 canonical

>  <source_system>  (20)
BACE1_verubecestat

>  <source_run>  (20)
canonical_obabel_redock_seed20260825_ex32

>  <source_seed>  (20)
20260825

>  <vina_pose_rank>  (20)
20

>  <vina_affinity_kcal_mol>  (20)
-7.2569999999999997

>  <vina_rmsd_to_crystal_angstrom>  (20)
7.9150999999999998

$$$$
