
     RDKit          3D

 52 55  0  0  0  0  0  0  0  0999 V2000
    4.6927   -0.4896   -2.9375 C   0  0  0  0  0  0  0  0  0  0  0  0
    4.8470    1.0199   -2.8788 C   0  0  0  0  0  0  0  0  0  0  0  0
    3.8386    1.6258   -2.0382 N   0  0  0  0  0  0  0  0  0  0  0  0
    2.5684    1.8851   -2.4983 C   0  0  0  0  0  0  0  0  0  0  0  0
    2.2165    1.7122   -3.6620 O   0  0  0  0  0  0  0  0  0  0  0  0
    1.6049    2.3720   -1.4396 C   0  0  0  0  0  0  0  0  0  0  0  0
    0.8694    1.1876   -0.8106 C   0  0  2  0  0  0  0  0  0  0  0  0
   -0.2779    1.7180   -0.0692 N   0  0  0  0  0  0  0  0  0  0  0  0
   -1.1495    0.9087    0.4322 C   0  0  0  0  0  0  0  0  0  0  0  0
   -2.2704    1.5279    1.2131 C   0  0  0  0  0  0  0  0  0  0  0  0
   -2.7847    2.7633    0.7979 C   0  0  0  0  0  0  0  0  0  0  0  0
   -3.8256    3.3656    1.5090 C   0  0  0  0  0  0  0  0  0  0  0  0
   -4.3442    2.7381    2.6401 C   0  0  0  0  0  0  0  0  0  0  0  0
   -5.6277    3.4768    3.5150 Cl  0  0  0  0  0  0  0  0  0  0  0  0
   -3.8265    1.5170    3.0713 C   0  0  0  0  0  0  0  0  0  0  0  0
   -2.7850    0.9117    2.3619 C   0  0  0  0  0  0  0  0  0  0  0  0
   -1.1134   -0.5852    0.2952 C   0  0  0  0  0  0  0  0  0  0  0  0
   -2.3263   -1.2266   -0.0272 C   0  0  0  0  0  0  0  0  0  0  0  0
   -2.4083   -2.6170   -0.0587 C   0  0  0  0  0  0  0  0  0  0  0  0
   -3.5243   -3.3524   -0.3415 O   0  0  0  0  0  0  0  0  0  0  0  0
   -4.7080   -2.6377   -0.6773 C   0  0  0  0  0  0  0  0  0  0  0  0
   -1.2701   -3.3711    0.2216 C   0  0  0  0  0  0  0  0  0  0  0  0
   -0.0515   -2.7521    0.5122 C   0  0  0  0  0  0  0  0  0  0  0  0
    0.0404   -1.3544    0.5428 C   0  0  0  0  0  0  0  0  0  0  0  0
    1.3027   -0.7414    0.7479 N   0  0  0  0  0  0  0  0  0  0  0  0
    2.3923   -1.1624    1.4952 C   0  0  0  0  0  0  0  0  0  0  0  0
    2.4229   -2.3031    2.4408 C   0  0  0  0  0  0  0  0  0  0  0  0
    3.3925   -0.3215    1.3193 N   0  0  0  0  0  0  0  0  0  0  0  0
    2.9730    0.6785    0.4931 N   0  0  0  0  0  0  0  0  0  0  0  0
    1.7281    0.4255    0.1458 C   0  0  0  0  0  0  0  0  0  0  0  0
    4.7609   -0.9276   -1.9360 H   0  0  0  0  0  0  0  0  0  0  0  0
    5.4781   -0.9295   -3.5595 H   0  0  0  0  0  0  0  0  0  0  0  0
    3.7225   -0.7737   -3.3583 H   0  0  0  0  0  0  0  0  0  0  0  0
    4.7804    1.4448   -3.8858 H   0  0  0  0  0  0  0  0  0  0  0  0
    5.8219    1.2829   -2.4565 H   0  0  0  0  0  0  0  0  0  0  0  0
    3.9549    1.5279   -1.0288 H   0  0  0  0  0  0  0  0  0  0  0  0
    2.1353    2.9758   -0.6928 H   0  0  0  0  0  0  0  0  0  0  0  0
    0.8964    3.0496   -1.9332 H   0  0  0  0  0  0  0  0  0  0  0  0
    0.5273    0.5263   -1.6187 H   0  0  0  0  0  0  0  0  0  0  0  0
   -2.3759    3.2617   -0.0790 H   0  0  0  0  0  0  0  0  0  0  0  0
   -4.2202    4.3229    1.1784 H   0  0  0  0  0  0  0  0  0  0  0  0
   -4.2234    1.0369    3.9624 H   0  0  0  0  0  0  0  0  0  0  0  0
   -2.3782   -0.0269    2.7285 H   0  0  0  0  0  0  0  0  0  0  0  0
   -3.1996   -0.6194   -0.2468 H   0  0  0  0  0  0  0  0  0  0  0  0
   -4.5616   -2.0329   -1.5782 H   0  0  0  0  0  0  0  0  0  0  0  0
   -5.4912   -3.3709   -0.8913 H   0  0  0  0  0  0  0  0  0  0  0  0
   -5.0474   -2.0221    0.1622 H   0  0  0  0  0  0  0  0  0  0  0  0
   -1.3259   -4.4580    0.1851 H   0  0  0  0  0  0  0  0  0  0  0  0
    0.8143   -3.3943    0.6439 H   0  0  0  0  0  0  0  0  0  0  0  0
    1.4644   -2.4373    2.9504 H   0  0  0  0  0  0  0  0  0  0  0  0
    3.1779   -2.1272    3.2143 H   0  0  0  0  0  0  0  0  0  0  0  0
    2.6930   -3.2279    1.9240 H   0  0  0  0  0  0  0  0  0  0  0  0
  1  2  1  0
  2  3  1  0
  3  4  1  0
  4  5  2  0
  4  6  1  0
  6  7  1  0
  7  8  1  0
  8  9  2  0
  9 10  1  0
 10 11  1  0
 11 12  2  0
 12 13  1  0
 13 14  1  0
 13 15  2  0
 15 16  1  0
  9 17  1  0
 17 18  2  0
 18 19  1  0
 19 20  1  0
 20 21  1  0
 19 22  2  0
 22 23  1  0
 23 24  2  0
 24 25  1  0
 25 26  1  0
 26 27  1  0
 26 28  2  0
 28 29  1  0
 29 30  2  0
 30  7  1  0
 16 10  2  0
 24 17  1  0
 30 25  1  0
  1 31  1  0
  1 32  1  0
  1 33  1  0
  2 34  1  0
  2 35  1  0
  3 36  1  0
  6 37  1  0
  6 38  1  0
  7 39  1  6
 11 40  1  0
 12 41  1  0
 15 42  1  0
 16 43  1  0
 18 44  1  0
 21 45  1  0
 21 46  1  0
 21 47  1  0
 22 48  1  0
 23 49  1  0
 27 50  1  0
 27 51  1  0
 27 52  1  0
M  END
$$$$
