CHRNA7_encenicline__hybrid_B_face_seed1103_ex32__pose01
     RDKit          3D

 38 41  0  0  0  0  0  0  0  0999 V2000
  142.0290  138.1840   94.9380 O   0  0  0  0  0  0  0  0  0  0  0  0
  142.0630  139.3540   94.7590 C   0  0  0  0  0  0  0  0  0  0  0  0
  142.8780  139.8950   93.6890 N   0  0  0  0  0  0  0  0  0  0  0  0
  143.6610  138.9750   92.8330 C   0  0  1  0  0  0  0  0  0  0  0  0
  142.9170  138.7330   91.5050 C   0  0  0  0  0  0  0  0  0  0  0  0
  143.7000  139.1100   90.4100 N   0  0  0  0  0  0  0  0  0  0  0  0
  144.8890  138.4130   90.4080 C   0  0  0  0  0  0  0  0  0  0  0  0
  145.6750  138.6670   91.6600 C   0  0  0  0  0  0  0  0  0  0  0  0
  144.9620  139.5630   92.5270 C   0  0  0  0  0  0  0  0  0  0  0  0
  144.7430  140.8180   91.8130 C   0  0  0  0  0  0  0  0  0  0  0  0
  143.9730  140.4980   90.4750 C   0  0  0  0  0  0  0  0  0  0  0  0
  141.2420  140.2830   95.6610 C   0  0  0  0  0  0  0  0  0  0  0  0
  139.9430  140.1140   95.9970 C   0  0  0  0  0  0  0  0  0  0  0  0
  139.3060  141.0710   96.8560 C   0  0  0  0  0  0  0  0  0  0  0  0
  138.0060  141.0430   97.2890 C   0  0  0  0  0  0  0  0  0  0  0  0
  137.5270  142.0510   98.1260 C   0  0  0  0  0  0  0  0  0  0  0  0
  138.3770  143.0970   98.5240 C   0  0  0  0  0  0  0  0  0  0  0  0
  139.7050  143.1310   98.0860 C   0  0  0  0  0  0  0  0  0  0  0  0
  140.7790  144.4590   98.5970 Cl  0  0  0  0  0  0  0  0  0  0  0  0
  140.1790  142.1390   97.2620 C   0  0  0  0  0  0  0  0  0  0  0  0
  141.7580  141.7450   96.4530 S   0  0  0  0  0  0  0  0  0  0  0  0
  142.9100  140.8660   93.5320 H   0  0  0  0  0  0  0  0  0  0  0  0
  143.7929  138.0257   93.3728 H   0  0  0  0  0  0  0  0  0  0  0  0
  142.6730  137.6637   91.4203 H   0  0  0  0  0  0  0  0  0  0  0  0
  142.0007  139.3416   91.5036 H   0  0  0  0  0  0  0  0  0  0  0  0
  144.6729  137.3370   90.3333 H   0  0  0  0  0  0  0  0  0  0  0  0
  145.4872  138.7518   89.5493 H   0  0  0  0  0  0  0  0  0  0  0  0
  145.8420  137.7136   92.1826 H   0  0  0  0  0  0  0  0  0  0  0  0
  146.6382  139.1242   91.3894 H   0  0  0  0  0  0  0  0  0  0  0  0
  145.5321  139.7380   93.4513 H   0  0  0  0  0  0  0  0  0  0  0  0
  144.1427  141.4993   92.4338 H   0  0  0  0  0  0  0  0  0  0  0  0
  145.7061  141.3005   91.5901 H   0  0  0  0  0  0  0  0  0  0  0  0
  143.0274  141.0595   90.4524 H   0  0  0  0  0  0  0  0  0  0  0  0
  144.5931  140.7912   89.6150 H   0  0  0  0  0  0  0  0  0  0  0  0
  139.3793  139.2501   95.6150 H   0  0  0  0  0  0  0  0  0  0  0  0
  137.3400  140.2253   96.9764 H   0  0  0  0  0  0  0  0  0  0  0  0
  136.4839  142.0271   98.4745 H   0  0  0  0  0  0  0  0  0  0  0  0
  137.9966  143.8919   99.1824 H   0  0  0  0  0  0  0  0  0  0  0  0
  1  2  2  0
  2  3  1  0
  3  4  1  0
  4  5  1  0
  5  6  1  0
  6  7  1  0
  7  8  1  0
  8  9  1  0
  9 10  1  0
 10 11  1  0
  2 12  1  0
 12 13  2  0
 13 14  1  0
 14 15  2  0
 15 16  1  0
 16 17  2  0
 17 18  1  0
 18 19  1  0
 18 20  2  0
 20 21  1  0
  9  4  1  0
 21 12  1  0
 11  6  1  0
 20 14  1  0
  3 22  1  0
  4 23  1  1
  5 24  1  0
  5 25  1  0
  7 26  1  0
  7 27  1  0
  8 28  1  0
  8 29  1  0
  9 30  1  0
 10 31  1  0
 10 32  1  0
 11 33  1  0
 11 34  1  0
 13 35  1  0
 15 36  1  0
 16 37  1  0
 17 38  1  0
M  END
>  <meeko>  (1)
{"is_sidechain": false}

>  <source_group>  (1)
CHRFAM7A at B face

>  <source_system>  (1)
CHRNA7_encenicline

>  <source_run>  (1)
hybrid_B_face_seed1103_ex32

>  <source_seed>  (1)
1103

>  <vina_pose_rank>  (1)
1

>  <vina_affinity_kcal_mol>  (1)
-6.4039999999999999

>  <vina_rmsd_to_crystal_angstrom>  (1)
8.3041

$$$$
CHRNA7_encenicline__hybrid_B_face_seed1103_ex32__pose02
     RDKit          3D

 38 41  0  0  0  0  0  0  0  0999 V2000
  143.8670  140.9300   95.6780 O   0  0  0  0  0  0  0  0  0  0  0  0
  142.8260  140.8130   95.1240 C   0  0  0  0  0  0  0  0  0  0  0  0
  142.7910  140.3660   93.7450 N   0  0  0  0  0  0  0  0  0  0  0  0
  144.0600  140.0650   93.0440 C   0  0  1  0  0  0  0  0  0  0  0  0
  144.5010  138.6200   93.3530 C   0  0  0  0  0  0  0  0  0  0  0  0
  144.6230  137.8670   92.1820 N   0  0  0  0  0  0  0  0  0  0  0  0
  145.5310  138.4540   91.3270 C   0  0  0  0  0  0  0  0  0  0  0  0
  145.1100  139.8430   90.9510 C   0  0  0  0  0  0  0  0  0  0  0  0
  143.8760  140.1860   91.6010 C   0  0  0  0  0  0  0  0  0  0  0  0
  142.8550  139.2280   91.1850 C   0  0  0  0  0  0  0  0  0  0  0  0
  143.3650  137.7790   91.5380 C   0  0  0  0  0  0  0  0  0  0  0  0
  141.5280  141.1310   95.8730 C   0  0  0  0  0  0  0  0  0  0  0  0
  141.2920  142.2410   96.6120 C   0  0  0  0  0  0  0  0  0  0  0  0
  140.0210  142.4020   97.2570 C   0  0  0  0  0  0  0  0  0  0  0  0
  139.6260  143.4600   98.0330 C   0  0  0  0  0  0  0  0  0  0  0  0
  138.3510  143.4740   98.5980 C   0  0  0  0  0  0  0  0  0  0  0  0
  137.4700  142.4030   98.3710 C   0  0  0  0  0  0  0  0  0  0  0  0
  137.8660  141.3210   97.5800 C   0  0  0  0  0  0  0  0  0  0  0  0
  136.7430  139.9650   97.2940 Cl  0  0  0  0  0  0  0  0  0  0  0  0
  139.1220  141.3040   97.0220 C   0  0  0  0  0  0  0  0  0  0  0  0
  140.0750  140.1770   95.9620 S   0  0  0  0  0  0  0  0  0  0  0  0
  141.9310  140.2640   93.2780 H   0  0  0  0  0  0  0  0  0  0  0  0
  144.8235  140.7779   93.3887 H   0  0  0  0  0  0  0  0  0  0  0  0
  145.4732  138.6438   93.8671 H   0  0  0  0  0  0  0  0  0  0  0  0
  143.7365  138.1514   93.9901 H   0  0  0  0  0  0  0  0  0  0  0  0
  146.5119  138.4993   91.8229 H   0  0  0  0  0  0  0  0  0  0  0  0
  145.5845  137.8485   90.4102 H   0  0  0  0  0  0  0  0  0  0  0  0
  145.8911  140.5540   91.2581 H   0  0  0  0  0  0  0  0  0  0  0  0
  144.9639  139.8887   89.8617 H   0  0  0  0  0  0  0  0  0  0  0  0
  143.5760  141.2110   91.3376 H   0  0  0  0  0  0  0  0  0  0  0  0
  141.9144  139.4316   91.7178 H   0  0  0  0  0  0  0  0  0  0  0  0
  142.6726  139.3133   90.1036 H   0  0  0  0  0  0  0  0  0  0  0  0
  142.6432  137.2890   92.2080 H   0  0  0  0  0  0  0  0  0  0  0  0
  143.4654  137.1897   90.6146 H   0  0  0  0  0  0  0  0  0  0  0  0
  142.0687  143.0129   96.7168 H   0  0  0  0  0  0  0  0  0  0  0  0
  140.3150  144.2989   98.2104 H   0  0  0  0  0  0  0  0  0  0  0  0
  138.0350  144.3234   99.2214 H   0  0  0  0  0  0  0  0  0  0  0  0
  136.4648  142.4163   98.8176 H   0  0  0  0  0  0  0  0  0  0  0  0
  1  2  2  0
  2  3  1  0
  3  4  1  0
  4  5  1  0
  5  6  1  0
  6  7  1  0
  7  8  1  0
  8  9  1  0
  9 10  1  0
 10 11  1  0
  2 12  1  0
 12 13  2  0
 13 14  1  0
 14 15  2  0
 15 16  1  0
 16 17  2  0
 17 18  1  0
 18 19  1  0
 18 20  2  0
 20 21  1  0
  9  4  1  0
 21 12  1  0
 11  6  1  0
 20 14  1  0
  3 22  1  0
  4 23  1  1
  5 24  1  0
  5 25  1  0
  7 26  1  0
  7 27  1  0
  8 28  1  0
  8 29  1  0
  9 30  1  0
 10 31  1  0
 10 32  1  0
 11 33  1  0
 11 34  1  0
 13 35  1  0
 15 36  1  0
 16 37  1  0
 17 38  1  0
M  END
>  <meeko>  (2)
{"is_sidechain": false}

>  <source_group>  (2)
CHRFAM7A at B face

>  <source_system>  (2)
CHRNA7_encenicline

>  <source_run>  (2)
hybrid_B_face_seed1103_ex32

>  <source_seed>  (2)
1103

>  <vina_pose_rank>  (2)
2

>  <vina_affinity_kcal_mol>  (2)
-6.141

>  <vina_rmsd_to_crystal_angstrom>  (2)
8.6295000000000002

$$$$
CHRNA7_encenicline__hybrid_B_face_seed1103_ex32__pose03
     RDKit          3D

 38 41  0  0  0  0  0  0  0  0999 V2000
  146.4690  144.5950   93.6480 O   0  0  0  0  0  0  0  0  0  0  0  0
  146.5940  143.5880   94.2600 C   0  0  0  0  0  0  0  0  0  0  0  0
  147.8790  143.2540   94.8430 N   0  0  0  0  0  0  0  0  0  0  0  0
  149.0230  144.1760   94.6610 C   0  0  1  0  0  0  0  0  0  0  0  0
  149.4360  144.7740   96.0210 C   0  0  0  0  0  0  0  0  0  0  0  0
  150.7700  144.4820   96.3170 N   0  0  0  0  0  0  0  0  0  0  0  0
  151.5990  144.9670   95.3280 C   0  0  0  0  0  0  0  0  0  0  0  0
  151.2700  144.3640   93.9950 C   0  0  0  0  0  0  0  0  0  0  0  0
  150.1670  143.4520   94.1140 C   0  0  0  0  0  0  0  0  0  0  0  0
  150.5380  142.4010   95.0570 C   0  0  0  0  0  0  0  0  0  0  0  0
  150.9390  143.0800   96.4220 C   0  0  0  0  0  0  0  0  0  0  0  0
  145.3920  142.6520   94.4320 C   0  0  0  0  0  0  0  0  0  0  0  0
  144.3340  142.8640   95.2490 C   0  0  0  0  0  0  0  0  0  0  0  0
  143.2790  141.8940   95.3030 C   0  0  0  0  0  0  0  0  0  0  0  0
  142.1460  141.9600   96.0710 C   0  0  0  0  0  0  0  0  0  0  0  0
  141.2040  140.9320   96.0170 C   0  0  0  0  0  0  0  0  0  0  0  0
  141.4170  139.8280   95.1740 C   0  0  0  0  0  0  0  0  0  0  0  0
  142.5710  139.7550   94.3860 C   0  0  0  0  0  0  0  0  0  0  0  0
  142.8340  138.3520   93.3170 Cl  0  0  0  0  0  0  0  0  0  0  0  0
  143.5000  140.7660   94.4380 C   0  0  0  0  0  0  0  0  0  0  0  0
  145.0950  141.1280   93.6460 S   0  0  0  0  0  0  0  0  0  0  0  0
  147.9900  142.4210   95.3550 H   0  0  0  0  0  0  0  0  0  0  0  0
  148.7179  144.9763   93.9708 H   0  0  0  0  0  0  0  0  0  0  0  0
  149.3067  145.8658   95.9870 H   0  0  0  0  0  0  0  0  0  0  0  0
  148.8009  144.3324   96.8031 H   0  0  0  0  0  0  0  0  0  0  0  0
  151.4815  146.0589   95.2659 H   0  0  0  0  0  0  0  0  0  0  0  0
  152.6353  144.7003   95.5828 H   0  0  0  0  0  0  0  0  0  0  0  0
  151.0024  145.1658   93.2911 H   0  0  0  0  0  0  0  0  0  0  0  0
  152.1485  143.8138   93.6269 H   0  0  0  0  0  0  0  0  0  0  0  0
  149.9173  143.0219   93.1328 H   0  0  0  0  0  0  0  0  0  0  0  0
  149.6850  141.7245   95.2145 H   0  0  0  0  0  0  0  0  0  0  0  0
  151.3824  141.8175   94.6614 H   0  0  0  0  0  0  0  0  0  0  0  0
  150.2977  142.6923   97.2272 H   0  0  0  0  0  0  0  0  0  0  0  0
  151.9907  142.8526   96.6507 H   0  0  0  0  0  0  0  0  0  0  0  0
  144.2837  143.7729   95.8666 H   0  0  0  0  0  0  0  0  0  0  0  0
  141.9790  142.8242   96.7307 H   0  0  0  0  0  0  0  0  0  0  0  0
  140.2950  140.9858   96.6341 H   0  0  0  0  0  0  0  0  0  0  0  0
  140.6737  139.0181   95.1335 H   0  0  0  0  0  0  0  0  0  0  0  0
  1  2  2  0
  2  3  1  0
  3  4  1  0
  4  5  1  0
  5  6  1  0
  6  7  1  0
  7  8  1  0
  8  9  1  0
  9 10  1  0
 10 11  1  0
  2 12  1  0
 12 13  2  0
 13 14  1  0
 14 15  2  0
 15 16  1  0
 16 17  2  0
 17 18  1  0
 18 19  1  0
 18 20  2  0
 20 21  1  0
  9  4  1  0
 21 12  1  0
 11  6  1  0
 20 14  1  0
  3 22  1  0
  4 23  1  6
  5 24  1  0
  5 25  1  0
  7 26  1  0
  7 27  1  0
  8 28  1  0
  8 29  1  0
  9 30  1  0
 10 31  1  0
 10 32  1  0
 11 33  1  0
 11 34  1  0
 13 35  1  0
 15 36  1  0
 16 37  1  0
 17 38  1  0
M  END
>  <meeko>  (3)
{"is_sidechain": false}

>  <source_group>  (3)
CHRFAM7A at B face

>  <source_system>  (3)
CHRNA7_encenicline

>  <source_run>  (3)
hybrid_B_face_seed1103_ex32

>  <source_seed>  (3)
1103

>  <vina_pose_rank>  (3)
3

>  <vina_affinity_kcal_mol>  (3)
-5.8259999999999996

>  <vina_rmsd_to_crystal_angstrom>  (3)
9.8984000000000005

$$$$
CHRNA7_encenicline__hybrid_B_face_seed1103_ex32__pose04
     RDKit          3D

 38 41  0  0  0  0  0  0  0  0999 V2000
  140.9740  141.2060   89.1290 O   0  0  0  0  0  0  0  0  0  0  0  0
  141.5200  140.2130   88.7870 C   0  0  0  0  0  0  0  0  0  0  0  0
  142.5980  139.6700   89.5920 N   0  0  0  0  0  0  0  0  0  0  0  0
  143.0030  140.3690   90.8320 C   0  0  1  0  0  0  0  0  0  0  0  0
  142.2530  139.7740   92.0400 C   0  0  0  0  0  0  0  0  0  0  0  0
  143.1430  139.2800   92.9970 N   0  0  0  0  0  0  0  0  0  0  0  0
  143.9890  140.2790   93.4260 C   0  0  0  0  0  0  0  0  0  0  0  0
  144.7870  140.8470   92.2890 C   0  0  0  0  0  0  0  0  0  0  0  0
  144.4360  140.1980   91.0570 C   0  0  0  0  0  0  0  0  0  0  0  0
  144.7120  138.7700   91.1930 C   0  0  0  0  0  0  0  0  0  0  0  0
  143.9090  138.2280   92.4360 C   0  0  0  0  0  0  0  0  0  0  0  0
  141.0790  139.5100   87.4980 C   0  0  0  0  0  0  0  0  0  0  0  0
  141.7880  139.4500   86.3470 C   0  0  0  0  0  0  0  0  0  0  0  0
  141.2440  138.7500   85.2190 C   0  0  0  0  0  0  0  0  0  0  0  0
  141.8320  138.5970   83.9910 C   0  0  0  0  0  0  0  0  0  0  0  0
  141.1740  137.8870   82.9850 C   0  0  0  0  0  0  0  0  0  0  0  0
  139.9090  137.3290   83.2320 C   0  0  0  0  0  0  0  0  0  0  0  0
  139.3040  137.4810   84.4840 C   0  0  0  0  0  0  0  0  0  0  0  0
  137.6980  136.7680   84.7910 Cl  0  0  0  0  0  0  0  0  0  0  0  0
  139.9490  138.1800   85.4750 C   0  0  0  0  0  0  0  0  0  0  0  0
  139.6020  138.6390   87.2000 S   0  0  0  0  0  0  0  0  0  0  0  0
  143.0550  138.8430   89.3160 H   0  0  0  0  0  0  0  0  0  0  0  0
  142.7613  141.4365   90.7227 H   0  0  0  0  0  0  0  0  0  0  0  0
  141.6329  140.5583   92.4985 H   0  0  0  0  0  0  0  0  0  0  0  0
  141.6278  138.9415   91.6848 H   0  0  0  0  0  0  0  0  0  0  0  0
  143.3917  141.0830   93.8807 H   0  0  0  0  0  0  0  0  0  0  0  0
  144.6880  139.8496   94.1588 H   0  0  0  0  0  0  0  0  0  0  0  0
  144.5796  141.9239   92.2032 H   0  0  0  0  0  0  0  0  0  0  0  0
  145.8565  140.6823   92.4867 H   0  0  0  0  0  0  0  0  0  0  0  0
  145.0099  140.6261   90.2219 H   0  0  0  0  0  0  0  0  0  0  0  0
  144.3916  138.2408   90.2835 H   0  0  0  0  0  0  0  0  0  0  0  0
  145.7900  138.6039   91.3359 H   0  0  0  0  0  0  0  0  0  0  0  0
  143.2388  137.4171   92.1147 H   0  0  0  0  0  0  0  0  0  0  0  0
  144.6129  137.8442   93.1891 H   0  0  0  0  0  0  0  0  0  0  0  0
  142.7733  139.9339   86.2768 H   0  0  0  0  0  0  0  0  0  0  0  0
  142.8229  139.0337   83.7976 H   0  0  0  0  0  0  0  0  0  0  0  0
  141.6462  137.7646   81.9991 H   0  0  0  0  0  0  0  0  0  0  0  0
  139.3920  136.7703   82.4379 H   0  0  0  0  0  0  0  0  0  0  0  0
  1  2  2  0
  2  3  1  0
  3  4  1  0
  4  5  1  0
  5  6  1  0
  6  7  1  0
  7  8  1  0
  8  9  1  0
  9 10  1  0
 10 11  1  0
  2 12  1  0
 12 13  2  0
 13 14  1  0
 14 15  2  0
 15 16  1  0
 16 17  2  0
 17 18  1  0
 18 19  1  0
 18 20  2  0
 20 21  1  0
  9  4  1  0
 21 12  1  0
 11  6  1  0
 20 14  1  0
  3 22  1  0
  4 23  1  6
  5 24  1  0
  5 25  1  0
  7 26  1  0
  7 27  1  0
  8 28  1  0
  8 29  1  0
  9 30  1  0
 10 31  1  0
 10 32  1  0
 11 33  1  0
 11 34  1  0
 13 35  1  0
 15 36  1  0
 16 37  1  0
 17 38  1  0
M  END
>  <meeko>  (4)
{"is_sidechain": false}

>  <source_group>  (4)
CHRFAM7A at B face

>  <source_system>  (4)
CHRNA7_encenicline

>  <source_run>  (4)
hybrid_B_face_seed1103_ex32

>  <source_seed>  (4)
1103

>  <vina_pose_rank>  (4)
4

>  <vina_affinity_kcal_mol>  (4)
-5.6749999999999998

>  <vina_rmsd_to_crystal_angstrom>  (4)
7.2944000000000004

$$$$
CHRNA7_encenicline__hybrid_B_face_seed1103_ex32__pose05
     RDKit          3D

 38 41  0  0  0  0  0  0  0  0999 V2000
  146.7710  144.2150   93.4880 O   0  0  0  0  0  0  0  0  0  0  0  0
  146.3110  143.9040   94.5340 C   0  0  0  0  0  0  0  0  0  0  0  0
  146.7750  144.5510   95.7460 N   0  0  0  0  0  0  0  0  0  0  0  0
  147.8240  145.5920   95.6600 C   0  0  1  0  0  0  0  0  0  0  0  0
  147.1740  146.9880   95.5900 C   0  0  0  0  0  0  0  0  0  0  0  0
  147.6020  147.7990   96.6440 N   0  0  0  0  0  0  0  0  0  0  0  0
  148.9740  147.9270   96.6250 C   0  0  0  0  0  0  0  0  0  0  0  0
  149.6500  146.5940   96.7520 C   0  0  0  0  0  0  0  0  0  0  0  0
  148.6750  145.5440   96.8460 C   0  0  0  0  0  0  0  0  0  0  0  0
  147.8420  145.7930   98.0190 C   0  0  0  0  0  0  0  0  0  0  0  0
  147.2040  147.2270   97.8780 C   0  0  0  0  0  0  0  0  0  0  0  0
  145.2260  142.8230   94.5930 C   0  0  0  0  0  0  0  0  0  0  0  0
  144.1390  142.8370   95.3990 C   0  0  0  0  0  0  0  0  0  0  0  0
  143.2040  141.7490   95.3410 C   0  0  0  0  0  0  0  0  0  0  0  0
  142.0600  141.6150   96.0830 C   0  0  0  0  0  0  0  0  0  0  0  0
  141.2470  140.4930   95.9150 C   0  0  0  0  0  0  0  0  0  0  0  0
  141.6010  139.5010   94.9850 C   0  0  0  0  0  0  0  0  0  0  0  0
  142.7660  139.6330   94.2230 C   0  0  0  0  0  0  0  0  0  0  0  0
  143.2090  138.3730   93.0430 Cl  0  0  0  0  0  0  0  0  0  0  0  0
  143.5690  140.7370   94.3870 C   0  0  0  0  0  0  0  0  0  0  0  0
  145.1220  141.3520   93.6690 S   0  0  0  0  0  0  0  0  0  0  0  0
  146.3960  144.3000   96.6190 H   0  0  0  0  0  0  0  0  0  0  0  0
  148.4237  145.4063   94.7568 H   0  0  0  0  0  0  0  0  0  0  0  0
  147.4484  147.4640   94.6370 H   0  0  0  0  0  0  0  0  0  0  0  0
  146.0831  146.8679   95.6642 H   0  0  0  0  0  0  0  0  0  0  0  0
  149.2768  148.3928   95.6756 H   0  0  0  0  0  0  0  0  0  0  0  0
  149.2753  148.5507   97.4795 H   0  0  0  0  0  0  0  0  0  0  0  0
  150.2825  146.4230   95.8684 H   0  0  0  0  0  0  0  0  0  0  0  0
  150.2650  146.5918   97.6640 H   0  0  0  0  0  0  0  0  0  0  0  0
  149.1715  144.5655   96.9236 H   0  0  0  0  0  0  0  0  0  0  0  0
  147.0461  145.0360   98.0773 H   0  0  0  0  0  0  0  0  0  0  0  0
  148.4499  145.7372   98.9341 H   0  0  0  0  0  0  0  0  0  0  0  0
  146.1074  147.1456   97.9083 H   0  0  0  0  0  0  0  0  0  0  0  0
  147.5460  147.8648   98.7064 H   0  0  0  0  0  0  0  0  0  0  0  0
  143.9733  143.6746   96.0925 H   0  0  0  0  0  0  0  0  0  0  0  0
  141.7823  142.3915   96.8110 H   0  0  0  0  0  0  0  0  0  0  0  0
  140.3287  140.3853   96.5109 H   0  0  0  0  0  0  0  0  0  0  0  0
  140.9591  138.6171   94.8559 H   0  0  0  0  0  0  0  0  0  0  0  0
  1  2  2  0
  2  3  1  0
  3  4  1  0
  4  5  1  0
  5  6  1  0
  6  7  1  0
  7  8  1  0
  8  9  1  0
  9 10  1  0
 10 11  1  0
  2 12  1  0
 12 13  2  0
 13 14  1  0
 14 15  2  0
 15 16  1  0
 16 17  2  0
 17 18  1  0
 18 19  1  0
 18 20  2  0
 20 21  1  0
  9  4  1  0
 21 12  1  0
 11  6  1  0
 20 14  1  0
  3 22  1  0
  4 23  1  6
  5 24  1  0
  5 25  1  0
  7 26  1  0
  7 27  1  0
  8 28  1  0
  8 29  1  0
  9 30  1  0
 10 31  1  0
 10 32  1  0
 11 33  1  0
 11 34  1  0
 13 35  1  0
 15 36  1  0
 16 37  1  0
 17 38  1  0
M  END
>  <meeko>  (5)
{"is_sidechain": false}

>  <source_group>  (5)
CHRFAM7A at B face

>  <source_system>  (5)
CHRNA7_encenicline

>  <source_run>  (5)
hybrid_B_face_seed1103_ex32

>  <source_seed>  (5)
1103

>  <vina_pose_rank>  (5)
5

>  <vina_affinity_kcal_mol>  (5)
-5.6719999999999997

>  <vina_rmsd_to_crystal_angstrom>  (5)
9.8343000000000007

$$$$
CHRNA7_encenicline__hybrid_B_face_seed1103_ex32__pose06
     RDKit          3D

 38 41  0  0  0  0  0  0  0  0999 V2000
  146.0520  144.8460   96.0250 O   0  0  0  0  0  0  0  0  0  0  0  0
  146.1630  144.2470   95.0100 C   0  0  0  0  0  0  0  0  0  0  0  0
  147.1310  144.6800   94.0200 N   0  0  0  0  0  0  0  0  0  0  0  0
  147.9670  145.8720   94.2920 C   0  0  1  0  0  0  0  0  0  0  0  0
  149.3360  145.4370   94.8520 C   0  0  0  0  0  0  0  0  0  0  0  0
  150.3810  145.8960   94.0470 N   0  0  0  0  0  0  0  0  0  0  0  0
  150.3400  147.2700   93.9450 C   0  0  0  0  0  0  0  0  0  0  0  0
  149.0450  147.7360   93.3470 C   0  0  0  0  0  0  0  0  0  0  0  0
  148.1950  146.6150   93.0560 C   0  0  0  0  0  0  0  0  0  0  0  0
  148.8910  145.7410   92.1160 C   0  0  0  0  0  0  0  0  0  0  0  0
  150.2720  145.3280   92.7540 C   0  0  0  0  0  0  0  0  0  0  0  0
  145.2850  143.0170   94.7550 C   0  0  0  0  0  0  0  0  0  0  0  0
  145.5850  141.9880   93.9290 C   0  0  0  0  0  0  0  0  0  0  0  0
  144.6600  140.8990   93.7940 C   0  0  0  0  0  0  0  0  0  0  0  0
  144.8150  139.7890   93.0070 C   0  0  0  0  0  0  0  0  0  0  0  0
  143.8220  138.8090   92.9780 C   0  0  0  0  0  0  0  0  0  0  0  0
  142.6620  138.9610   93.7570 C   0  0  0  0  0  0  0  0  0  0  0  0
  142.4980  140.0920   94.5630 C   0  0  0  0  0  0  0  0  0  0  0  0
  141.0260  140.2790   95.5510 Cl  0  0  0  0  0  0  0  0  0  0  0  0
  143.4750  141.0580   94.5930 C   0  0  0  0  0  0  0  0  0  0  0  0
  143.7290  142.6460   95.4410 S   0  0  0  0  0  0  0  0  0  0  0  0
  147.2320  144.1860   93.1750 H   0  0  0  0  0  0  0  0  0  0  0  0
  147.4417  146.5050   95.0224 H   0  0  0  0  0  0  0  0  0  0  0  0
  149.4563  145.8486   95.8650 H   0  0  0  0  0  0  0  0  0  0  0  0
  149.3700  144.3377   94.8729 H   0  0  0  0  0  0  0  0  0  0  0  0
  150.4485  147.7068   94.9487 H   0  0  0  0  0  0  0  0  0  0  0  0
  151.1609  147.5931   93.2880 H   0  0  0  0  0  0  0  0  0  0  0  0
  148.5357  148.4016   94.0594 H   0  0  0  0  0  0  0  0  0  0  0  0
  149.2575  148.2745   92.4117 H   0  0  0  0  0  0  0  0  0  0  0  0
  147.2398  146.9576   92.6316 H   0  0  0  0  0  0  0  0  0  0  0  0
  148.2857  144.8425   91.9255 H   0  0  0  0  0  0  0  0  0  0  0  0
  149.0553  146.2642   91.1624 H   0  0  0  0  0  0  0  0  0  0  0  0
  150.3288  144.2320   92.8285 H   0  0  0  0  0  0  0  0  0  0  0  0
  151.0936  145.6944   92.1210 H   0  0  0  0  0  0  0  0  0  0  0  0
  146.5299  141.9862   93.3658 H   0  0  0  0  0  0  0  0  0  0  0  0
  145.7228  139.6699   92.3974 H   0  0  0  0  0  0  0  0  0  0  0  0
  143.9471  137.9177   92.3456 H   0  0  0  0  0  0  0  0  0  0  0  0
  141.8803  138.1875   93.7326 H   0  0  0  0  0  0  0  0  0  0  0  0
  1  2  2  0
  2  3  1  0
  3  4  1  0
  4  5  1  0
  5  6  1  0
  6  7  1  0
  7  8  1  0
  8  9  1  0
  9 10  1  0
 10 11  1  0
  2 12  1  0
 12 13  2  0
 13 14  1  0
 14 15  2  0
 15 16  1  0
 16 17  2  0
 17 18  1  0
 18 19  1  0
 18 20  2  0
 20 21  1  0
  9  4  1  0
 21 12  1  0
 11  6  1  0
 20 14  1  0
  3 22  1  0
  4 23  1  1
  5 24  1  0
  5 25  1  0
  7 26  1  0
  7 27  1  0
  8 28  1  0
  8 29  1  0
  9 30  1  0
 10 31  1  0
 10 32  1  0
 11 33  1  0
 11 34  1  0
 13 35  1  0
 15 36  1  0
 16 37  1  0
 17 38  1  0
M  END
>  <meeko>  (6)
{"is_sidechain": false}

>  <source_group>  (6)
CHRFAM7A at B face

>  <source_system>  (6)
CHRNA7_encenicline

>  <source_run>  (6)
hybrid_B_face_seed1103_ex32

>  <source_seed>  (6)
1103

>  <vina_pose_rank>  (6)
6

>  <vina_affinity_kcal_mol>  (6)
-5.6269999999999998

>  <vina_rmsd_to_crystal_angstrom>  (6)
9.3454999999999995

$$$$
CHRNA7_encenicline__hybrid_B_face_seed1103_ex32__pose07
     RDKit          3D

 38 41  0  0  0  0  0  0  0  0999 V2000
  147.5630  138.5310   90.0670 O   0  0  0  0  0  0  0  0  0  0  0  0
  147.7610  138.3050   91.2120 C   0  0  0  0  0  0  0  0  0  0  0  0
  146.6600  138.3370   92.1550 N   0  0  0  0  0  0  0  0  0  0  0  0
  145.2970  138.6580   91.6720 C   0  0  1  0  0  0  0  0  0  0  0  0
  144.2480  137.9390   92.5430 C   0  0  0  0  0  0  0  0  0  0  0  0
  143.3700  138.8510   93.1340 N   0  0  0  0  0  0  0  0  0  0  0  0
  142.7330  139.5990   92.1680 C   0  0  0  0  0  0  0  0  0  0  0  0
  143.7160  140.3650   91.3320 C   0  0  0  0  0  0  0  0  0  0  0  0
  145.0590  140.0950   91.7640 C   0  0  0  0  0  0  0  0  0  0  0  0
  145.1810  140.4920   93.1640 C   0  0  0  0  0  0  0  0  0  0  0  0
  144.0900  139.7160   93.9950 C   0  0  0  0  0  0  0  0  0  0  0  0
  149.1820  137.9760   91.6850 C   0  0  0  0  0  0  0  0  0  0  0  0
  149.8780  138.6510   92.6280 C   0  0  0  0  0  0  0  0  0  0  0  0
  151.2050  138.2220   92.9680 C   0  0  0  0  0  0  0  0  0  0  0  0
  152.0350  138.7920   93.8960 C   0  0  0  0  0  0  0  0  0  0  0  0
  153.3060  138.2600   94.1170 C   0  0  0  0  0  0  0  0  0  0  0  0
  153.7350  137.1380   93.3870 C   0  0  0  0  0  0  0  0  0  0  0  0
  152.8910  136.5510   92.4390 C   0  0  0  0  0  0  0  0  0  0  0  0
  153.4390  135.1270   91.5170 Cl  0  0  0  0  0  0  0  0  0  0  0  0
  151.6390  137.0730   92.2200 C   0  0  0  0  0  0  0  0  0  0  0  0
  150.2240  136.6920   91.1440 S   0  0  0  0  0  0  0  0  0  0  0  0
  146.8160  138.1480   93.1080 H   0  0  0  0  0  0  0  0  0  0  0  0
  145.2131  138.3276   90.6262 H   0  0  0  0  0  0  0  0  0  0  0  0
  143.6732  137.2449   91.9124 H   0  0  0  0  0  0  0  0  0  0  0  0
  144.7731  137.3941   93.3414 H   0  0  0  0  0  0  0  0  0  0  0  0
  142.1569  138.9258   91.5162 H   0  0  0  0  0  0  0  0  0  0  0  0
  142.0696  140.3192   92.6693 H   0  0  0  0  0  0  0  0  0  0  0  0
  143.6070  140.0657   90.2791 H   0  0  0  0  0  0  0  0  0  0  0  0
  143.5155  141.4410   91.4421 H   0  0  0  0  0  0  0  0  0  0  0  0
  145.7800  140.6446   91.1410 H   0  0  0  0  0  0  0  0  0  0  0  0
  146.1839  140.2368   93.5370 H   0  0  0  0  0  0  0  0  0  0  0  0
  145.0331  141.5774   93.2645 H   0  0  0  0  0  0  0  0  0  0  0  0
  144.5802  139.1251   94.7828 H   0  0  0  0  0  0  0  0  0  0  0  0
  143.3976  140.4362   94.4554 H   0  0  0  0  0  0  0  0  0  0  0  0
  149.4309  139.5215   93.1302 H   0  0  0  0  0  0  0  0  0  0  0  0
  151.6996  139.6699   94.4677 H   0  0  0  0  0  0  0  0  0  0  0  0
  153.9722  138.7187   94.8625 H   0  0  0  0  0  0  0  0  0  0  0  0
  154.7375  136.7205   93.5619 H   0  0  0  0  0  0  0  0  0  0  0  0
  1  2  2  0
  2  3  1  0
  3  4  1  0
  4  5  1  0
  5  6  1  0
  6  7  1  0
  7  8  1  0
  8  9  1  0
  9 10  1  0
 10 11  1  0
  2 12  1  0
 12 13  2  0
 13 14  1  0
 14 15  2  0
 15 16  1  0
 16 17  2  0
 17 18  1  0
 18 19  1  0
 18 20  2  0
 20 21  1  0
  9  4  1  0
 21 12  1  0
 11  6  1  0
 20 14  1  0
  3 22  1  0
  4 23  1  6
  5 24  1  0
  5 25  1  0
  7 26  1  0
  7 27  1  0
  8 28  1  0
  8 29  1  0
  9 30  1  0
 10 31  1  0
 10 32  1  0
 11 33  1  0
 11 34  1  0
 13 35  1  0
 15 36  1  0
 16 37  1  0
 17 38  1  0
M  END
>  <meeko>  (7)
{"is_sidechain": false}

>  <source_group>  (7)
CHRFAM7A at B face

>  <source_system>  (7)
CHRNA7_encenicline

>  <source_run>  (7)
hybrid_B_face_seed1103_ex32

>  <source_seed>  (7)
1103

>  <vina_pose_rank>  (7)
7

>  <vina_affinity_kcal_mol>  (7)
-5.5449999999999999

>  <vina_rmsd_to_crystal_angstrom>  (7)
6.4009999999999998

$$$$
CHRNA7_encenicline__hybrid_B_face_seed1103_ex32__pose08
     RDKit          3D

 38 41  0  0  0  0  0  0  0  0999 V2000
  146.0420  145.2400   95.7300 O   0  0  0  0  0  0  0  0  0  0  0  0
  146.1990  144.4600   94.8530 C   0  0  0  0  0  0  0  0  0  0  0  0
  147.2420  144.6810   93.8700 N   0  0  0  0  0  0  0  0  0  0  0  0
  148.0980  145.8850   93.9760 C   0  0  1  0  0  0  0  0  0  0  0  0
  149.3630  145.5600   94.7950 C   0  0  0  0  0  0  0  0  0  0  0  0
  150.5220  145.8000   94.0530 N   0  0  0  0  0  0  0  0  0  0  0  0
  150.5640  147.1140   93.6410 C   0  0  0  0  0  0  0  0  0  0  0  0
  149.3800  147.4580   92.7870 C   0  0  0  0  0  0  0  0  0  0  0  0
  148.5160  146.3190   92.6460 C   0  0  0  0  0  0  0  0  0  0  0  0
  149.2770  145.2370   92.0270 C   0  0  0  0  0  0  0  0  0  0  0  0
  150.5450  144.9530   92.9180 C   0  0  0  0  0  0  0  0  0  0  0  0
  145.2980  143.2220   94.7680 C   0  0  0  0  0  0  0  0  0  0  0  0
  144.1200  143.0550   95.4120 C   0  0  0  0  0  0  0  0  0  0  0  0
  143.3840  141.8360   95.2330 C   0  0  0  0  0  0  0  0  0  0  0  0
  142.1830  141.5150   95.8080 C   0  0  0  0  0  0  0  0  0  0  0  0
  141.5870  140.2830   95.5370 C   0  0  0  0  0  0  0  0  0  0  0  0
  142.2180  139.3710   94.6740 C   0  0  0  0  0  0  0  0  0  0  0  0
  143.4430  139.6940   94.0820 C   0  0  0  0  0  0  0  0  0  0  0  0
  144.2390  138.5340   92.9860 Cl  0  0  0  0  0  0  0  0  0  0  0  0
  144.0330  140.9070   94.3480 C   0  0  0  0  0  0  0  0  0  0  0  0
  145.5560  141.7660   93.8510 S   0  0  0  0  0  0  0  0  0  0  0  0
  147.3810  144.0360   93.1400 H   0  0  0  0  0  0  0  0  0  0  0  0
  147.5194  146.6798   94.4696 H   0  0  0  0  0  0  0  0  0  0  0  0
  149.3778  146.1896   95.6969 H   0  0  0  0  0  0  0  0  0  0  0  0
  149.3378  144.4941   95.0657 H   0  0  0  0  0  0  0  0  0  0  0  0
  150.5683  147.7667   94.5264 H   0  0  0  0  0  0  0  0  0  0  0  0
  151.4759  147.2604   93.0436 H   0  0  0  0  0  0  0  0  0  0  0  0
  148.8212  148.2808   93.2568 H   0  0  0  0  0  0  0  0  0  0  0  0
  149.7348  147.7620   91.7912 H   0  0  0  0  0  0  0  0  0  0  0  0
  147.6397  146.5760   92.0328 H   0  0  0  0  0  0  0  0  0  0  0  0
  148.6548  144.3320   91.9659 H   0  0  0  0  0  0  0  0  0  0  0  0
  149.5840  145.5225   91.0100 H   0  0  0  0  0  0  0  0  0  0  0  0
  150.5366  143.9024   93.2439 H   0  0  0  0  0  0  0  0  0  0  0  0
  151.4560  145.1474   92.3330 H   0  0  0  0  0  0  0  0  0  0  0  0
  143.7294  143.8472   96.0676 H   0  0  0  0  0  0  0  0  0  0  0  0
  141.6884  142.2286   96.4834 H   0  0  0  0  0  0  0  0  0  0  0  0
  140.6226  140.0254   95.9991 H   0  0  0  0  0  0  0  0  0  0  0  0
  141.7467  138.3997   94.4634 H   0  0  0  0  0  0  0  0  0  0  0  0
  1  2  2  0
  2  3  1  0
  3  4  1  0
  4  5  1  0
  5  6  1  0
  6  7  1  0
  7  8  1  0
  8  9  1  0
  9 10  1  0
 10 11  1  0
  2 12  1  0
 12 13  2  0
 13 14  1  0
 14 15  2  0
 15 16  1  0
 16 17  2  0
 17 18  1  0
 18 19  1  0
 18 20  2  0
 20 21  1  0
  9  4  1  0
 21 12  1  0
 11  6  1  0
 20 14  1  0
  3 22  1  0
  4 23  1  1
  5 24  1  0
  5 25  1  0
  7 26  1  0
  7 27  1  0
  8 28  1  0
  8 29  1  0
  9 30  1  0
 10 31  1  0
 10 32  1  0
 11 33  1  0
 11 34  1  0
 13 35  1  0
 15 36  1  0
 16 37  1  0
 17 38  1  0
M  END
>  <meeko>  (8)
{"is_sidechain": false}

>  <source_group>  (8)
CHRFAM7A at B face

>  <source_system>  (8)
CHRNA7_encenicline

>  <source_run>  (8)
hybrid_B_face_seed1103_ex32

>  <source_seed>  (8)
1103

>  <vina_pose_rank>  (8)
8

>  <vina_affinity_kcal_mol>  (8)
-5.4480000000000004

>  <vina_rmsd_to_crystal_angstrom>  (8)
9.4314999999999998

$$$$
CHRNA7_encenicline__hybrid_B_face_seed1103_ex32__pose09
     RDKit          3D

 38 41  0  0  0  0  0  0  0  0999 V2000
  148.5050  137.6550   92.2940 O   0  0  0  0  0  0  0  0  0  0  0  0
  147.9600  138.1260   91.3540 C   0  0  0  0  0  0  0  0  0  0  0  0
  148.6640  138.2330   90.0910 N   0  0  0  0  0  0  0  0  0  0  0  0
  150.0610  137.7520   89.9930 C   0  0  1  0  0  0  0  0  0  0  0  0
  150.0910  136.3530   89.3460 C   0  0  0  0  0  0  0  0  0  0  0  0
  150.8690  136.3480   88.1860 N   0  0  0  0  0  0  0  0  0  0  0  0
  152.1550  136.7530   88.4690 C   0  0  0  0  0  0  0  0  0  0  0  0
  152.1790  138.1380   89.0460 C   0  0  0  0  0  0  0  0  0  0  0  0
  150.8440  138.6570   89.1570 C   0  0  0  0  0  0  0  0  0  0  0  0
  150.2480  138.6840   87.8240 C   0  0  0  0  0  0  0  0  0  0  0  0
  150.3020  137.2260   87.2290 C   0  0  0  0  0  0  0  0  0  0  0  0
  146.5130  138.6160   91.4840 C   0  0  0  0  0  0  0  0  0  0  0  0
  145.7100  138.9900   90.4620 C   0  0  0  0  0  0  0  0  0  0  0  0
  144.3710  139.4260   90.7390 C   0  0  0  0  0  0  0  0  0  0  0  0
  143.4370  139.8330   89.8230 C   0  0  0  0  0  0  0  0  0  0  0  0
  142.1700  140.2330   90.2480 C   0  0  0  0  0  0  0  0  0  0  0  0
  141.8510  140.2190   91.6160 C   0  0  0  0  0  0  0  0  0  0  0  0
  142.7990  139.8030   92.5570 C   0  0  0  0  0  0  0  0  0  0  0  0
  142.3870  139.7850   94.2910 Cl  0  0  0  0  0  0  0  0  0  0  0  0
  144.0480  139.4090   92.1410 C   0  0  0  0  0  0  0  0  0  0  0  0
  145.5700  138.8090   92.9340 S   0  0  0  0  0  0  0  0  0  0  0  0
  148.2170  138.6210   89.3050 H   0  0  0  0  0  0  0  0  0  0  0  0
  150.4854  137.7111   91.0070 H   0  0  0  0  0  0  0  0  0  0  0  0
  150.5135  135.6348   90.0642 H   0  0  0  0  0  0  0  0  0  0  0  0
  149.0622  136.0728   89.0758 H   0  0  0  0  0  0  0  0  0  0  0  0
  152.5983  136.0553   89.1948 H   0  0  0  0  0  0  0  0  0  0  0  0
  152.7301  136.7589   87.5313 H   0  0  0  0  0  0  0  0  0  0  0  0
  152.6401  138.1069   90.0442 H   0  0  0  0  0  0  0  0  0  0  0  0
  152.7621  138.7918   88.3808 H   0  0  0  0  0  0  0  0  0  0  0  0
  150.8599  139.6661   89.5945 H   0  0  0  0  0  0  0  0  0  0  0  0
  149.2028  139.0202   87.8905 H   0  0  0  0  0  0  0  0  0  0  0  0
  150.8012  139.3791   87.1753 H   0  0  0  0  0  0  0  0  0  0  0  0
  149.2832  136.8921   86.9828 H   0  0  0  0  0  0  0  0  0  0  0  0
  150.9179  137.2236   86.3176 H   0  0  0  0  0  0  0  0  0  0  0  0
  146.0803  138.9603   89.4266 H   0  0  0  0  0  0  0  0  0  0  0  0
  143.6864  139.8443   88.7517 H   0  0  0  0  0  0  0  0  0  0  0  0
  141.4206  140.5594   89.5119 H   0  0  0  0  0  0  0  0  0  0  0  0
  140.8517  140.5364   91.9487 H   0  0  0  0  0  0  0  0  0  0  0  0
  1  2  2  0
  2  3  1  0
  3  4  1  0
  4  5  1  0
  5  6  1  0
  6  7  1  0
  7  8  1  0
  8  9  1  0
  9 10  1  0
 10 11  1  0
  2 12  1  0
 12 13  2  0
 13 14  1  0
 14 15  2  0
 15 16  1  0
 16 17  2  0
 17 18  1  0
 18 19  1  0
 18 20  2  0
 20 21  1  0
  9  4  1  0
 21 12  1  0
 11  6  1  0
 20 14  1  0
  3 22  1  0
  4 23  1  1
  5 24  1  0
  5 25  1  0
  7 26  1  0
  7 27  1  0
  8 28  1  0
  8 29  1  0
  9 30  1  0
 10 31  1  0
 10 32  1  0
 11 33  1  0
 11 34  1  0
 13 35  1  0
 15 36  1  0
 16 37  1  0
 17 38  1  0
M  END
>  <meeko>  (9)
{"is_sidechain": false}

>  <source_group>  (9)
CHRFAM7A at B face

>  <source_system>  (9)
CHRNA7_encenicline

>  <source_run>  (9)
hybrid_B_face_seed1103_ex32

>  <source_seed>  (9)
1103

>  <vina_pose_rank>  (9)
9

>  <vina_affinity_kcal_mol>  (9)
-5.3040000000000003

>  <vina_rmsd_to_crystal_angstrom>  (9)
8.5684000000000005

$$$$
CHRNA7_encenicline__hybrid_B_face_seed1103_ex32__pose10
     RDKit          3D

 38 41  0  0  0  0  0  0  0  0999 V2000
  151.5610  136.3430   87.3860 O   0  0  0  0  0  0  0  0  0  0  0  0
  150.8020  136.2250   88.2870 C   0  0  0  0  0  0  0  0  0  0  0  0
  149.4990  135.6310   88.0560 N   0  0  0  0  0  0  0  0  0  0  0  0
  149.1330  135.1830   86.6930 C   0  0  1  0  0  0  0  0  0  0  0  0
  148.0480  134.0910   86.7720 C   0  0  0  0  0  0  0  0  0  0  0  0
  146.8980  134.4690   86.0740 N   0  0  0  0  0  0  0  0  0  0  0  0
  147.2010  134.7240   84.7540 C   0  0  0  0  0  0  0  0  0  0  0  0
  148.2110  135.8250   84.6270 C   0  0  0  0  0  0  0  0  0  0  0  0
  148.5980  136.3030   85.9250 C   0  0  0  0  0  0  0  0  0  0  0  0
  147.4050  136.8000   86.6070 C   0  0  0  0  0  0  0  0  0  0  0  0
  146.3460  135.6340   86.6610 C   0  0  0  0  0  0  0  0  0  0  0  0
  151.2060  136.6970   89.6870 C   0  0  0  0  0  0  0  0  0  0  0  0
  152.2210  136.1950   90.4290 C   0  0  0  0  0  0  0  0  0  0  0  0
  152.4830  136.7440   91.7290 C   0  0  0  0  0  0  0  0  0  0  0  0
  153.4670  136.3520   92.5980 C   0  0  0  0  0  0  0  0  0  0  0  0
  153.5980  136.9830   93.8360 C   0  0  0  0  0  0  0  0  0  0  0  0
  152.7190  138.0210   94.1910 C   0  0  0  0  0  0  0  0  0  0  0  0
  151.7140  138.4270   93.3080 C   0  0  0  0  0  0  0  0  0  0  0  0
  150.6040  139.7460   93.7640 Cl  0  0  0  0  0  0  0  0  0  0  0  0
  151.5830  137.8060   92.0890 C   0  0  0  0  0  0  0  0  0  0  0  0
  150.4860  137.9570   90.6470 S   0  0  0  0  0  0  0  0  0  0  0  0
  148.8630  135.5260   88.8000 H   0  0  0  0  0  0  0  0  0  0  0  0
  150.0354  134.7868   86.2045 H   0  0  0  0  0  0  0  0  0  0  0  0
  148.4426  133.1612   86.3364 H   0  0  0  0  0  0  0  0  0  0  0  0
  147.7806  133.9419   87.8285 H   0  0  0  0  0  0  0  0  0  0  0  0
  147.6087  133.8100   84.2974 H   0  0  0  0  0  0  0  0  0  0  0  0
  146.2797  135.0388   84.2420 H   0  0  0  0  0  0  0  0  0  0  0  0
  149.0990  135.4432   84.1020 H   0  0  0  0  0  0  0  0  0  0  0  0
  147.7640  136.6550   84.0603 H   0  0  0  0  0  0  0  0  0  0  0  0
  149.3514  137.0990   85.8316 H   0  0  0  0  0  0  0  0  0  0  0  0
  147.6643  137.1150   87.6286 H   0  0  0  0  0  0  0  0  0  0  0  0
  146.9911  137.6641   86.0667 H   0  0  0  0  0  0  0  0  0  0  0  0
  146.0813  135.4270   87.7084 H   0  0  0  0  0  0  0  0  0  0  0  0
  145.4433  135.9318   86.1074 H   0  0  0  0  0  0  0  0  0  0  0  0
  152.8396  135.3734   90.0389 H   0  0  0  0  0  0  0  0  0  0  0  0
  154.1542  135.5394   92.3198 H   0  0  0  0  0  0  0  0  0  0  0  0
  154.3884  136.6684   94.5333 H   0  0  0  0  0  0  0  0  0  0  0  0
  152.8224  138.5160   95.1679 H   0  0  0  0  0  0  0  0  0  0  0  0
  1  2  2  0
  2  3  1  0
  3  4  1  0
  4  5  1  0
  5  6  1  0
  6  7  1  0
  7  8  1  0
  8  9  1  0
  9 10  1  0
 10 11  1  0
  2 12  1  0
 12 13  2  0
 13 14  1  0
 14 15  2  0
 15 16  1  0
 16 17  2  0
 17 18  1  0
 18 19  1  0
 18 20  2  0
 20 21  1  0
  9  4  1  0
 21 12  1  0
 11  6  1  0
 20 14  1  0
  3 22  1  0
  4 23  1  6
  5 24  1  0
  5 25  1  0
  7 26  1  0
  7 27  1  0
  8 28  1  0
  8 29  1  0
  9 30  1  0
 10 31  1  0
 10 32  1  0
 11 33  1  0
 11 34  1  0
 13 35  1  0
 15 36  1  0
 16 37  1  0
 17 38  1  0
M  END
>  <meeko>  (10)
{"is_sidechain": false}

>  <source_group>  (10)
CHRFAM7A at B face

>  <source_system>  (10)
CHRNA7_encenicline

>  <source_run>  (10)
hybrid_B_face_seed1103_ex32

>  <source_seed>  (10)
1103

>  <vina_pose_rank>  (10)
10

>  <vina_affinity_kcal_mol>  (10)
-5.2690000000000001

>  <vina_rmsd_to_crystal_angstrom>  (10)
8.8292000000000002

$$$$
CHRNA7_encenicline__hybrid_B_face_seed1103_ex32__pose11
     RDKit          3D

 38 41  0  0  0  0  0  0  0  0999 V2000
  145.9920  145.3740   94.2540 O   0  0  0  0  0  0  0  0  0  0  0  0
  146.1150  144.4420   94.9740 C   0  0  0  0  0  0  0  0  0  0  0  0
  147.0630  144.5000   96.0700 N   0  0  0  0  0  0  0  0  0  0  0  0
  147.8680  145.7260   96.2730 C   0  0  1  0  0  0  0  0  0  0  0  0
  148.1910  145.9020   97.7700 C   0  0  0  0  0  0  0  0  0  0  0  0
  149.5700  145.9400   97.9890 N   0  0  0  0  0  0  0  0  0  0  0  0
  150.1420  146.9680   97.2700 C   0  0  0  0  0  0  0  0  0  0  0  0
  149.9040  146.8050   95.7980 C   0  0  0  0  0  0  0  0  0  0  0  0
  149.1290  145.6220   95.5440 C   0  0  0  0  0  0  0  0  0  0  0  0
  149.8640  144.4700   96.0590 C   0  0  0  0  0  0  0  0  0  0  0  0
  150.1510  144.7110   97.5900 C   0  0  0  0  0  0  0  0  0  0  0  0
  145.2680  143.1860   94.7420 C   0  0  0  0  0  0  0  0  0  0  0  0
  145.5520  142.1910   93.8700 C   0  0  0  0  0  0  0  0  0  0  0  0
  144.6610  141.0710   93.7640 C   0  0  0  0  0  0  0  0  0  0  0  0
  144.8050  139.9870   92.9380 C   0  0  0  0  0  0  0  0  0  0  0  0
  143.8490  138.9710   92.9450 C   0  0  0  0  0  0  0  0  0  0  0  0
  142.7380  139.0590   93.8000 C   0  0  0  0  0  0  0  0  0  0  0  0
  142.5850  140.1610   94.6470 C   0  0  0  0  0  0  0  0  0  0  0  0
  141.1740  140.2660   95.7310 Cl  0  0  0  0  0  0  0  0  0  0  0  0
  143.5250  141.1640   94.6410 C   0  0  0  0  0  0  0  0  0  0  0  0
  143.7750  142.7380   95.5150 S   0  0  0  0  0  0  0  0  0  0  0  0
  147.1700  143.7310   96.6750 H   0  0  0  0  0  0  0  0  0  0  0  0
  147.2882  146.5859   95.9063 H   0  0  0  0  0  0  0  0  0  0  0  0
  147.7454  146.8431   98.1248 H   0  0  0  0  0  0  0  0  0  0  0  0
  147.7751  145.0442   98.3189 H   0  0  0  0  0  0  0  0  0  0  0  0
  149.7047  147.9219   97.5997 H   0  0  0  0  0  0  0  0  0  0  0  0
  151.2273  146.9535   97.4489 H   0  0  0  0  0  0  0  0  0  0  0  0
  149.3600  147.6829   95.4194 H   0  0  0  0  0  0  0  0  0  0  0  0
  150.8741  146.7125   95.2877 H   0  0  0  0  0  0  0  0  0  0  0  0
  148.9412  145.5112   94.4658 H   0  0  0  0  0  0  0  0  0  0  0  0
  149.2624  143.5579   95.9323 H   0  0  0  0  0  0  0  0  0  0  0  0
  150.8096  144.3474   95.5106 H   0  0  0  0  0  0  0  0  0  0  0  0
  149.7151  143.8905   98.1789 H   0  0  0  0  0  0  0  0  0  0  0  0
  151.2373  144.7454   97.7596 H   0  0  0  0  0  0  0  0  0  0  0  0
  146.4578  142.2402   93.2479 H   0  0  0  0  0  0  0  0  0  0  0  0
  145.6753  139.9179   92.2688 H   0  0  0  0  0  0  0  0  0  0  0  0
  143.9652  138.1015   92.2813 H   0  0  0  0  0  0  0  0  0  0  0  0
  141.9848  138.2573   93.8033 H   0  0  0  0  0  0  0  0  0  0  0  0
  1  2  2  0
  2  3  1  0
  3  4  1  0
  4  5  1  0
  5  6  1  0
  6  7  1  0
  7  8  1  0
  8  9  1  0
  9 10  1  0
 10 11  1  0
  2 12  1  0
 12 13  2  0
 13 14  1  0
 14 15  2  0
 15 16  1  0
 16 17  2  0
 17 18  1  0
 18 19  1  0
 18 20  2  0
 20 21  1  0
  9  4  1  0
 21 12  1  0
 11  6  1  0
 20 14  1  0
  3 22  1  0
  4 23  1  6
  5 24  1  0
  5 25  1  0
  7 26  1  0
  7 27  1  0
  8 28  1  0
  8 29  1  0
  9 30  1  0
 10 31  1  0
 10 32  1  0
 11 33  1  0
 11 34  1  0
 13 35  1  0
 15 36  1  0
 16 37  1  0
 17 38  1  0
M  END
>  <meeko>  (11)
{"is_sidechain": false}

>  <source_group>  (11)
CHRFAM7A at B face

>  <source_system>  (11)
CHRNA7_encenicline

>  <source_run>  (11)
hybrid_B_face_seed1103_ex32

>  <source_seed>  (11)
1103

>  <vina_pose_rank>  (11)
11

>  <vina_affinity_kcal_mol>  (11)
-5.2069999999999999

>  <vina_rmsd_to_crystal_angstrom>  (11)
10.087300000000001

$$$$
CHRNA7_encenicline__hybrid_B_face_seed1103_ex32__pose12
     RDKit          3D

 38 41  0  0  0  0  0  0  0  0999 V2000
  145.3950  142.0900   93.5730 O   0  0  0  0  0  0  0  0  0  0  0  0
  145.2070  142.7250   94.5550 C   0  0  0  0  0  0  0  0  0  0  0  0
  146.2120  143.6670   95.0070 N   0  0  0  0  0  0  0  0  0  0  0  0
  147.4660  143.8200   94.2350 C   0  0  1  0  0  0  0  0  0  0  0  0
  147.4620  145.1680   93.4870 C   0  0  0  0  0  0  0  0  0  0  0  0
  148.5530  145.9570   93.8590 N   0  0  0  0  0  0  0  0  0  0  0  0
  149.7340  145.2930   93.6060 C   0  0  0  0  0  0  0  0  0  0  0  0
  149.8080  144.0000   94.3630 C   0  0  0  0  0  0  0  0  0  0  0  0
  148.6140  143.8030   95.1370 C   0  0  0  0  0  0  0  0  0  0  0  0
  148.4810  144.9190   96.0710 C   0  0  0  0  0  0  0  0  0  0  0  0
  148.4740  146.2590   95.2410 C   0  0  0  0  0  0  0  0  0  0  0  0
  143.8990  142.5470   95.3340 C   0  0  0  0  0  0  0  0  0  0  0  0
  143.4990  143.2920   96.3900 C   0  0  0  0  0  0  0  0  0  0  0  0
  142.2410  143.0060   97.0200 C   0  0  0  0  0  0  0  0  0  0  0  0
  141.6950  143.6650   98.0900 C   0  0  0  0  0  0  0  0  0  0  0  0
  140.4560  143.2680   98.5950 C   0  0  0  0  0  0  0  0  0  0  0  0
  139.7690  142.1930   98.0070 C   0  0  0  0  0  0  0  0  0  0  0  0
  140.3210  141.5180   96.9140 C   0  0  0  0  0  0  0  0  0  0  0  0
  139.4430  140.1560   96.1700 Cl  0  0  0  0  0  0  0  0  0  0  0  0
  141.5400  141.9060   96.4140 C   0  0  0  0  0  0  0  0  0  0  0  0
  142.6390  141.3760   95.0660 S   0  0  0  0  0  0  0  0  0  0  0  0
  146.0620  144.2000   95.8210 H   0  0  0  0  0  0  0  0  0  0  0  0
  147.5354  142.9882   93.5186 H   0  0  0  0  0  0  0  0  0  0  0  0
  147.5098  144.9776   92.4047 H   0  0  0  0  0  0  0  0  0  0  0  0
  146.5388  145.7068   93.7465 H   0  0  0  0  0  0  0  0  0  0  0  0
  149.8019  145.0814   92.5287 H   0  0  0  0  0  0  0  0  0  0  0  0
  150.5675  145.9329   93.9314 H   0  0  0  0  0  0  0  0  0  0  0  0
  149.9193  143.1691   93.6508 H   0  0  0  0  0  0  0  0  0  0  0  0
  150.6720  144.0339   95.0429 H   0  0  0  0  0  0  0  0  0  0  0  0
  148.6623  142.8471   95.6791 H   0  0  0  0  0  0  0  0  0  0  0  0
  147.5400  144.8242   96.6327 H   0  0  0  0  0  0  0  0  0  0  0  0
  149.3183  144.9188   96.7844 H   0  0  0  0  0  0  0  0  0  0  0  0
  147.5444  146.8112   95.4434 H   0  0  0  0  0  0  0  0  0  0  0  0
  149.3368  146.8760   95.5321 H   0  0  0  0  0  0  0  0  0  0  0  0
  144.1325  144.1103   96.7629 H   0  0  0  0  0  0  0  0  0  0  0  0
  142.2330  144.5066   98.5508 H   0  0  0  0  0  0  0  0  0  0  0  0
  140.0172  143.7971   99.4538 H   0  0  0  0  0  0  0  0  0  0  0  0
  138.7933  141.8811   98.4079 H   0  0  0  0  0  0  0  0  0  0  0  0
  1  2  2  0
  2  3  1  0
  3  4  1  0
  4  5  1  0
  5  6  1  0
  6  7  1  0
  7  8  1  0
  8  9  1  0
  9 10  1  0
 10 11  1  0
  2 12  1  0
 12 13  2  0
 13 14  1  0
 14 15  2  0
 15 16  1  0
 16 17  2  0
 17 18  1  0
 18 19  1  0
 18 20  2  0
 20 21  1  0
  9  4  1  0
 21 12  1  0
 11  6  1  0
 20 14  1  0
  3 22  1  0
  4 23  1  6
  5 24  1  0
  5 25  1  0
  7 26  1  0
  7 27  1  0
  8 28  1  0
  8 29  1  0
  9 30  1  0
 10 31  1  0
 10 32  1  0
 11 33  1  0
 11 34  1  0
 13 35  1  0
 15 36  1  0
 16 37  1  0
 17 38  1  0
M  END
>  <meeko>  (12)
{"is_sidechain": false}

>  <source_group>  (12)
CHRFAM7A at B face

>  <source_system>  (12)
CHRNA7_encenicline

>  <source_run>  (12)
hybrid_B_face_seed1103_ex32

>  <source_seed>  (12)
1103

>  <vina_pose_rank>  (12)
12

>  <vina_affinity_kcal_mol>  (12)
-5.1890000000000001

>  <vina_rmsd_to_crystal_angstrom>  (12)
10.0969

$$$$
CHRNA7_encenicline__hybrid_B_face_seed1103_ex32__pose13
     RDKit          3D

 38 41  0  0  0  0  0  0  0  0999 V2000
  148.0440  143.1350   94.7540 O   0  0  0  0  0  0  0  0  0  0  0  0
  147.0180  143.6060   94.3960 C   0  0  0  0  0  0  0  0  0  0  0  0
  147.0000  144.9300   93.8050 N   0  0  0  0  0  0  0  0  0  0  0  0
  148.2690  145.6800   93.6590 C   0  0  1  0  0  0  0  0  0  0  0  0
  148.1610  146.6730   92.4850 C   0  0  0  0  0  0  0  0  0  0  0  0
  148.3820  147.9850   92.9110 N   0  0  0  0  0  0  0  0  0  0  0  0
  149.6250  148.0960   93.4960 C   0  0  0  0  0  0  0  0  0  0  0  0
  149.7540  147.1890   94.6830 C   0  0  0  0  0  0  0  0  0  0  0  0
  148.5440  146.4390   94.8750 C   0  0  0  0  0  0  0  0  0  0  0  0
  147.4470  147.3810   95.0860 C   0  0  0  0  0  0  0  0  0  0  0  0
  147.3880  148.3560   93.8490 C   0  0  0  0  0  0  0  0  0  0  0  0
  145.7200  142.8080   94.5580 C   0  0  0  0  0  0  0  0  0  0  0  0
  144.6750  143.1480   95.3480 C   0  0  0  0  0  0  0  0  0  0  0  0
  143.5200  142.2970   95.3960 C   0  0  0  0  0  0  0  0  0  0  0  0
  142.3870  142.4990   96.1380 C   0  0  0  0  0  0  0  0  0  0  0  0
  141.3410  141.5770   96.0820 C   0  0  0  0  0  0  0  0  0  0  0  0
  141.4510  140.4400   95.2630 C   0  0  0  0  0  0  0  0  0  0  0  0
  142.6050  140.2290   94.5020 C   0  0  0  0  0  0  0  0  0  0  0  0
  142.7370  138.7850   93.4640 Cl  0  0  0  0  0  0  0  0  0  0  0  0
  143.6360  141.1350   94.5560 C   0  0  0  0  0  0  0  0  0  0  0  0
  145.2760  141.3090   93.7920 S   0  0  0  0  0  0  0  0  0  0  0  0
  146.1520  145.3270   93.5030 H   0  0  0  0  0  0  0  0  0  0  0  0
  149.0784  144.9588   93.4726 H   0  0  0  0  0  0  0  0  0  0  0  0
  148.9110  146.4117   91.7239 H   0  0  0  0  0  0  0  0  0  0  0  0
  147.1456  146.6089   92.0669 H   0  0  0  0  0  0  0  0  0  0  0  0
  150.3939  147.8287   92.7562 H   0  0  0  0  0  0  0  0  0  0  0  0
  149.7556  149.1335   93.8373 H   0  0  0  0  0  0  0  0  0  0  0  0
  150.5894  146.4928   94.5178 H   0  0  0  0  0  0  0  0  0  0  0  0
  149.9412  147.7990   95.5790 H   0  0  0  0  0  0  0  0  0  0  0  0
  148.6453  145.7619   95.7360 H   0  0  0  0  0  0  0  0  0  0  0  0
  146.4974  146.8327   95.1732 H   0  0  0  0  0  0  0  0  0  0  0  0
  147.6104  147.9523   96.0117 H   0  0  0  0  0  0  0  0  0  0  0  0
  146.3962  148.2916   93.3777 H   0  0  0  0  0  0  0  0  0  0  0  0
  147.5664  149.3880   94.1852 H   0  0  0  0  0  0  0  0  0  0  0  0
  144.7105  144.0690   95.9484 H   0  0  0  0  0  0  0  0  0  0  0  0
  142.3013  143.3889   96.7788 H   0  0  0  0  0  0  0  0  0  0  0  0
  140.4311  141.7399   96.6783 H   0  0  0  0  0  0  0  0  0  0  0  0
  140.6262  139.7134   95.2205 H   0  0  0  0  0  0  0  0  0  0  0  0
  1  2  2  0
  2  3  1  0
  3  4  1  0
  4  5  1  0
  5  6  1  0
  6  7  1  0
  7  8  1  0
  8  9  1  0
  9 10  1  0
 10 11  1  0
  2 12  1  0
 12 13  2  0
 13 14  1  0
 14 15  2  0
 15 16  1  0
 16 17  2  0
 17 18  1  0
 18 19  1  0
 18 20  2  0
 20 21  1  0
  9  4  1  0
 21 12  1  0
 11  6  1  0
 20 14  1  0
  3 22  1  0
  4 23  1  6
  5 24  1  0
  5 25  1  0
  7 26  1  0
  7 27  1  0
  8 28  1  0
  8 29  1  0
  9 30  1  0
 10 31  1  0
 10 32  1  0
 11 33  1  0
 11 34  1  0
 13 35  1  0
 15 36  1  0
 16 37  1  0
 17 38  1  0
M  END
>  <meeko>  (13)
{"is_sidechain": false}

>  <source_group>  (13)
CHRFAM7A at B face

>  <source_system>  (13)
CHRNA7_encenicline

>  <source_run>  (13)
hybrid_B_face_seed1103_ex32

>  <source_seed>  (13)
1103

>  <vina_pose_rank>  (13)
13

>  <vina_affinity_kcal_mol>  (13)
-5.1539999999999999

>  <vina_rmsd_to_crystal_angstrom>  (13)
9.5540000000000003

$$$$
CHRNA7_encenicline__hybrid_B_face_seed1103_ex32__pose14
     RDKit          3D

 38 41  0  0  0  0  0  0  0  0999 V2000
  139.8320  140.9600   87.7370 O   0  0  0  0  0  0  0  0  0  0  0  0
  140.7470  140.2100   87.7980 C   0  0  0  0  0  0  0  0  0  0  0  0
  141.0930  139.4000   86.6470 N   0  0  0  0  0  0  0  0  0  0  0  0
  140.2930  139.5170   85.4060 C   0  0  1  0  0  0  0  0  0  0  0  0
  141.2220  139.7810   84.2050 C   0  0  0  0  0  0  0  0  0  0  0  0
  141.0830  138.7890   83.2310 N   0  0  0  0  0  0  0  0  0  0  0  0
  139.7760  138.7210   82.7980 C   0  0  0  0  0  0  0  0  0  0  0  0
  138.8410  138.4050   83.9280 C   0  0  0  0  0  0  0  0  0  0  0  0
  139.5690  138.2740   85.1590 C   0  0  0  0  0  0  0  0  0  0  0  0
  140.5440  137.1970   85.0050 C   0  0  0  0  0  0  0  0  0  0  0  0
  141.4620  137.5350   83.7700 C   0  0  0  0  0  0  0  0  0  0  0  0
  141.5580  140.1090   89.0950 C   0  0  0  0  0  0  0  0  0  0  0  0
  142.8680  139.7820   89.1850 C   0  0  0  0  0  0  0  0  0  0  0  0
  143.4950  139.7300   90.4750 C   0  0  0  0  0  0  0  0  0  0  0  0
  144.8040  139.4200   90.7360 C   0  0  0  0  0  0  0  0  0  0  0  0
  145.2700  139.4090   92.0510 C   0  0  0  0  0  0  0  0  0  0  0  0
  144.3980  139.7160   93.1080 C   0  0  0  0  0  0  0  0  0  0  0  0
  143.0610  140.0340   92.8490 C   0  0  0  0  0  0  0  0  0  0  0  0
  141.9590  140.4250   94.1950 Cl  0  0  0  0  0  0  0  0  0  0  0  0
  142.5990  140.0460   91.5550 C   0  0  0  0  0  0  0  0  0  0  0  0
  141.0160  140.3810   90.7260 S   0  0  0  0  0  0  0  0  0  0  0  0
  141.8530  138.7760   86.6890 H   0  0  0  0  0  0  0  0  0  0  0  0
  139.5840  140.3492   85.5273 H   0  0  0  0  0  0  0  0  0  0  0  0
  140.9687  140.7559   83.7629 H   0  0  0  0  0  0  0  0  0  0  0  0
  142.2625  139.7755   84.5617 H   0  0  0  0  0  0  0  0  0  0  0  0
  139.4933  139.6895   82.3596 H   0  0  0  0  0  0  0  0  0  0  0  0
  139.7001  137.9174   82.0507 H   0  0  0  0  0  0  0  0  0  0  0  0
  138.1049  139.2164   84.0269 H   0  0  0  0  0  0  0  0  0  0  0  0
  138.3300  137.4549   83.7130 H   0  0  0  0  0  0  0  0  0  0  0  0
  138.8813  138.0586   85.9900 H   0  0  0  0  0  0  0  0  0  0  0  0
  141.1579  137.1179   85.9144 H   0  0  0  0  0  0  0  0  0  0  0  0
  140.0285  136.2388   84.8436 H   0  0  0  0  0  0  0  0  0  0  0  0
  142.5123  137.5772   84.0941 H   0  0  0  0  0  0  0  0  0  0  0  0
  141.3470  136.7554   83.0025 H   0  0  0  0  0  0  0  0  0  0  0  0
  143.4474  139.5579   88.2772 H   0  0  0  0  0  0  0  0  0  0  0  0
  145.4876  139.1797   89.9084 H   0  0  0  0  0  0  0  0  0  0  0  0
  146.3208  139.1598   92.2599 H   0  0  0  0  0  0  0  0  0  0  0  0
  144.7680  139.7063   94.1439 H   0  0  0  0  0  0  0  0  0  0  0  0
  1  2  2  0
  2  3  1  0
  3  4  1  0
  4  5  1  0
  5  6  1  0
  6  7  1  0
  7  8  1  0
  8  9  1  0
  9 10  1  0
 10 11  1  0
  2 12  1  0
 12 13  2  0
 13 14  1  0
 14 15  2  0
 15 16  1  0
 16 17  2  0
 17 18  1  0
 18 19  1  0
 18 20  2  0
 20 21  1  0
  9  4  1  0
 21 12  1  0
 11  6  1  0
 20 14  1  0
  3 22  1  0
  4 23  1  1
  5 24  1  0
  5 25  1  0
  7 26  1  0
  7 27  1  0
  8 28  1  0
  8 29  1  0
  9 30  1  0
 10 31  1  0
 10 32  1  0
 11 33  1  0
 11 34  1  0
 13 35  1  0
 15 36  1  0
 16 37  1  0
 17 38  1  0
M  END
>  <meeko>  (14)
{"is_sidechain": false}

>  <source_group>  (14)
CHRFAM7A at B face

>  <source_system>  (14)
CHRNA7_encenicline

>  <source_run>  (14)
hybrid_B_face_seed1103_ex32

>  <source_seed>  (14)
1103

>  <vina_pose_rank>  (14)
14

>  <vina_affinity_kcal_mol>  (14)
-5.1390000000000002

>  <vina_rmsd_to_crystal_angstrom>  (14)
5.1657999999999999

$$$$
CHRNA7_encenicline__hybrid_B_face_seed1103_ex32__pose15
     RDKit          3D

 38 41  0  0  0  0  0  0  0  0999 V2000
  144.8980  145.1360   98.5140 O   0  0  0  0  0  0  0  0  0  0  0  0
  144.8970  144.5120   97.5080 C   0  0  0  0  0  0  0  0  0  0  0  0
  146.0240  144.6070   96.6000 N   0  0  0  0  0  0  0  0  0  0  0  0
  147.1630  145.4890   96.9430 C   0  0  1  0  0  0  0  0  0  0  0  0
  148.4650  144.9230   96.3430 C   0  0  0  0  0  0  0  0  0  0  0  0
  149.0670  145.8440   95.4820 N   0  0  0  0  0  0  0  0  0  0  0  0
  149.3390  147.0180   96.1500 C   0  0  0  0  0  0  0  0  0  0  0  0
  148.0880  147.6370   96.7010 C   0  0  0  0  0  0  0  0  0  0  0  0
  146.9470  146.8220   96.3900 C   0  0  0  0  0  0  0  0  0  0  0  0
  146.8460  146.7060   94.9370 C   0  0  0  0  0  0  0  0  0  0  0  0
  148.2020  146.1150   94.3930 C   0  0  0  0  0  0  0  0  0  0  0  0
  143.7050  143.6060   97.1780 C   0  0  0  0  0  0  0  0  0  0  0  0
  143.7030  142.5970   96.2770 C   0  0  0  0  0  0  0  0  0  0  0  0
  142.5060  141.8310   96.0770 C   0  0  0  0  0  0  0  0  0  0  0  0
  142.3420  140.7830   95.2100 C   0  0  0  0  0  0  0  0  0  0  0  0
  141.1100  140.1340   95.1260 C   0  0  0  0  0  0  0  0  0  0  0  0
  140.0370  140.5550   95.9300 C   0  0  0  0  0  0  0  0  0  0  0  0
  140.1980  141.6230   96.8170 C   0  0  0  0  0  0  0  0  0  0  0  0
  138.8340  142.1520   97.8360 Cl  0  0  0  0  0  0  0  0  0  0  0  0
  141.4110  142.2650   96.9020 C   0  0  0  0  0  0  0  0  0  0  0  0
  142.1030  143.6480   97.8580 S   0  0  0  0  0  0  0  0  0  0  0  0
  146.0330  144.0890   95.7630 H   0  0  0  0  0  0  0  0  0  0  0  0
  147.2424  145.5431   98.0388 H   0  0  0  0  0  0  0  0  0  0  0  0
  149.1629  144.6860   97.1595 H   0  0  0  0  0  0  0  0  0  0  0  0
  148.2188  144.0181   95.7680 H   0  0  0  0  0  0  0  0  0  0  0  0
  150.0289  146.8059   96.9801 H   0  0  0  0  0  0  0  0  0  0  0  0
  149.7904  147.7248   95.4381 H   0  0  0  0  0  0  0  0  0  0  0  0
  148.1802  147.7298   97.7932 H   0  0  0  0  0  0  0  0  0  0  0  0
  147.9515  148.6298   96.2474 H   0  0  0  0  0  0  0  0  0  0  0  0
  146.0322  147.2676   96.8079 H   0  0  0  0  0  0  0  0  0  0  0  0
  146.0154  146.0344   94.6742 H   0  0  0  0  0  0  0  0  0  0  0  0
  146.6560  147.6930   94.4900 H   0  0  0  0  0  0  0  0  0  0  0  0
  148.0020  145.1839   93.8425 H   0  0  0  0  0  0  0  0  0  0  0  0
  148.6764  146.8434   93.7190 H   0  0  0  0  0  0  0  0  0  0  0  0
  144.6118  142.3654   95.7021 H   0  0  0  0  0  0  0  0  0  0  0  0
  143.1815  140.4534   94.5803 H   0  0  0  0  0  0  0  0  0  0  0  0
  140.9784  139.2923   94.4301 H   0  0  0  0  0  0  0  0  0  0  0  0
  139.0665  140.0418   95.8609 H   0  0  0  0  0  0  0  0  0  0  0  0
  1  2  2  0
  2  3  1  0
  3  4  1  0
  4  5  1  0
  5  6  1  0
  6  7  1  0
  7  8  1  0
  8  9  1  0
  9 10  1  0
 10 11  1  0
  2 12  1  0
 12 13  2  0
 13 14  1  0
 14 15  2  0
 15 16  1  0
 16 17  2  0
 17 18  1  0
 18 19  1  0
 18 20  2  0
 20 21  1  0
  9  4  1  0
 21 12  1  0
 11  6  1  0
 20 14  1  0
  3 22  1  0
  4 23  1  1
  5 24  1  0
  5 25  1  0
  7 26  1  0
  7 27  1  0
  8 28  1  0
  8 29  1  0
  9 30  1  0
 10 31  1  0
 10 32  1  0
 11 33  1  0
 11 34  1  0
 13 35  1  0
 15 36  1  0
 16 37  1  0
 17 38  1  0
M  END
>  <meeko>  (15)
{"is_sidechain": false}

>  <source_group>  (15)
CHRFAM7A at B face

>  <source_system>  (15)
CHRNA7_encenicline

>  <source_run>  (15)
hybrid_B_face_seed1103_ex32

>  <source_seed>  (15)
1103

>  <vina_pose_rank>  (15)
15

>  <vina_affinity_kcal_mol>  (15)
-5.1210000000000004

>  <vina_rmsd_to_crystal_angstrom>  (15)
10.610799999999999

$$$$
CHRNA7_encenicline__hybrid_B_face_seed1103_ex32__pose16
     RDKit          3D

 38 41  0  0  0  0  0  0  0  0999 V2000
  147.9950  138.4500   89.5080 O   0  0  0  0  0  0  0  0  0  0  0  0
  147.7530  138.2680   90.6530 C   0  0  0  0  0  0  0  0  0  0  0  0
  148.7360  137.6240   91.5030 N   0  0  0  0  0  0  0  0  0  0  0  0
  150.0310  137.1980   90.9260 C   0  0  1  0  0  0  0  0  0  0  0  0
  151.0790  138.3140   91.1080 C   0  0  0  0  0  0  0  0  0  0  0  0
  152.1820  137.8590   91.8350 N   0  0  0  0  0  0  0  0  0  0  0  0
  152.7610  136.7800   91.2030 C   0  0  0  0  0  0  0  0  0  0  0  0
  151.7920  135.6450   91.0580 C   0  0  0  0  0  0  0  0  0  0  0  0
  150.5150  136.0030   91.6100 C   0  0  0  0  0  0  0  0  0  0  0  0
  150.6970  136.3230   93.0230 C   0  0  0  0  0  0  0  0  0  0  0  0
  151.7700  137.4730   93.1340 C   0  0  0  0  0  0  0  0  0  0  0  0
  146.4040  138.7190   91.2240 C   0  0  0  0  0  0  0  0  0  0  0  0
  146.1210  138.9020   92.5340 C   0  0  0  0  0  0  0  0  0  0  0  0
  144.8060  139.3300   92.9190 C   0  0  0  0  0  0  0  0  0  0  0  0
  144.3630  139.5620   94.1940 C   0  0  0  0  0  0  0  0  0  0  0  0
  143.0490  139.9760   94.4120 C   0  0  0  0  0  0  0  0  0  0  0  0
  142.1790  140.1560   93.3230 C   0  0  0  0  0  0  0  0  0  0  0  0
  142.6260  139.9230   92.0190 C   0  0  0  0  0  0  0  0  0  0  0  0
  141.5180  140.1560   90.6410 Cl  0  0  0  0  0  0  0  0  0  0  0  0
  143.9200  139.5150   91.8020 C   0  0  0  0  0  0  0  0  0  0  0  0
  144.9420  139.0960   90.3580 S   0  0  0  0  0  0  0  0  0  0  0  0
  148.5430  137.4710   92.4560 H   0  0  0  0  0  0  0  0  0  0  0  0
  149.8815  136.9868   89.8569 H   0  0  0  0  0  0  0  0  0  0  0  0
  151.4173  138.6532   90.1178 H   0  0  0  0  0  0  0  0  0  0  0  0
  150.6133  139.1412   91.6637 H   0  0  0  0  0  0  0  0  0  0  0  0
  153.1003  137.0905   90.2038 H   0  0  0  0  0  0  0  0  0  0  0  0
  153.6083  136.4353   91.8139 H   0  0  0  0  0  0  0  0  0  0  0  0
  151.6714  135.4055   89.9912 H   0  0  0  0  0  0  0  0  0  0  0  0
  152.1826  134.7710   91.5999 H   0  0  0  0  0  0  0  0  0  0  0  0
  149.7998  135.1759   91.4896 H   0  0  0  0  0  0  0  0  0  0  0  0
  149.7431  136.6610   93.4540 H   0  0  0  0  0  0  0  0  0  0  0  0
  151.0360  135.4329   93.5733 H   0  0  0  0  0  0  0  0  0  0  0  0
  151.3289  138.3378   93.6512 H   0  0  0  0  0  0  0  0  0  0  0  0
  152.6392  137.1109   93.7027 H   0  0  0  0  0  0  0  0  0  0  0  0
  146.8922  138.7243   93.2980 H   0  0  0  0  0  0  0  0  0  0  0  0
  145.0438  139.4218   95.0466 H   0  0  0  0  0  0  0  0  0  0  0  0
  142.6936  140.1616   95.4363 H   0  0  0  0  0  0  0  0  0  0  0  0
  141.1428  140.4814   93.4973 H   0  0  0  0  0  0  0  0  0  0  0  0
  1  2  2  0
  2  3  1  0
  3  4  1  0
  4  5  1  0
  5  6  1  0
  6  7  1  0
  7  8  1  0
  8  9  1  0
  9 10  1  0
 10 11  1  0
  2 12  1  0
 12 13  2  0
 13 14  1  0
 14 15  2  0
 15 16  1  0
 16 17  2  0
 17 18  1  0
 18 19  1  0
 18 20  2  0
 20 21  1  0
  9  4  1  0
 21 12  1  0
 11  6  1  0
 20 14  1  0
  3 22  1  0
  4 23  1  6
  5 24  1  0
  5 25  1  0
  7 26  1  0
  7 27  1  0
  8 28  1  0
  8 29  1  0
  9 30  1  0
 10 31  1  0
 10 32  1  0
 11 33  1  0
 11 34  1  0
 13 35  1  0
 15 36  1  0
 16 37  1  0
 17 38  1  0
M  END
>  <meeko>  (16)
{"is_sidechain": false}

>  <source_group>  (16)
CHRFAM7A at B face

>  <source_system>  (16)
CHRNA7_encenicline

>  <source_run>  (16)
hybrid_B_face_seed1103_ex32

>  <source_seed>  (16)
1103

>  <vina_pose_rank>  (16)
16

>  <vina_affinity_kcal_mol>  (16)
-5.0380000000000003

>  <vina_rmsd_to_crystal_angstrom>  (16)
9.0408000000000008

$$$$
CHRNA7_encenicline__hybrid_B_face_seed1103_ex32__pose17
     RDKit          3D

 38 41  0  0  0  0  0  0  0  0999 V2000
  148.3160  137.7330   92.2080 O   0  0  0  0  0  0  0  0  0  0  0  0
  148.0520  138.1850   91.1460 C   0  0  0  0  0  0  0  0  0  0  0  0
  146.6940  138.6000   90.8570 N   0  0  0  0  0  0  0  0  0  0  0  0
  145.6500  138.4510   91.8960 C   0  0  1  0  0  0  0  0  0  0  0  0
  145.4670  139.7830   92.6510 C   0  0  0  0  0  0  0  0  0  0  0  0
  144.1510  140.2430   92.5540 N   0  0  0  0  0  0  0  0  0  0  0  0
  143.2760  139.3040   93.0550 C   0  0  0  0  0  0  0  0  0  0  0  0
  143.3770  138.0080   92.3070 C   0  0  0  0  0  0  0  0  0  0  0  0
  144.3750  138.0990   91.2780 C   0  0  0  0  0  0  0  0  0  0  0  0
  143.9960  139.1720   90.3620 C   0  0  0  0  0  0  0  0  0  0  0  0
  143.8360  140.5000   91.1970 C   0  0  0  0  0  0  0  0  0  0  0  0
  149.1530  138.3280   90.0880 C   0  0  0  0  0  0  0  0  0  0  0  0
  150.3740  138.8750   90.2860 C   0  0  0  0  0  0  0  0  0  0  0  0
  151.3050  138.9370   89.1960 C   0  0  0  0  0  0  0  0  0  0  0  0
  152.5730  139.4550   89.2320 C   0  0  0  0  0  0  0  0  0  0  0  0
  153.3640  139.4470   88.0820 C   0  0  0  0  0  0  0  0  0  0  0  0
  152.8590  138.9080   86.8870 C   0  0  0  0  0  0  0  0  0  0  0  0
  151.5660  138.3770   86.8430 C   0  0  0  0  0  0  0  0  0  0  0  0
  150.9330  137.6920   85.3230 Cl  0  0  0  0  0  0  0  0  0  0  0  0
  150.7850  138.3840   87.9740 C   0  0  0  0  0  0  0  0  0  0  0  0
  149.1100  137.8380   88.4190 S   0  0  0  0  0  0  0  0  0  0  0  0
  146.4670  138.9790   89.9770 H   0  0  0  0  0  0  0  0  0  0  0  0
  145.9640  137.6590   92.5918 H   0  0  0  0  0  0  0  0  0  0  0  0
  145.7167  139.6314   93.7115 H   0  0  0  0  0  0  0  0  0  0  0  0
  146.1322  140.5335   92.1990 H   0  0  0  0  0  0  0  0  0  0  0  0
  143.5112  139.1250   94.1145 H   0  0  0  0  0  0  0  0  0  0  0  0
  142.2521  139.6899   92.9423 H   0  0  0  0  0  0  0  0  0  0  0  0
  143.6513  137.2057   93.0078 H   0  0  0  0  0  0  0  0  0  0  0  0
  142.4047  137.7883   91.8419 H   0  0  0  0  0  0  0  0  0  0  0  0
  144.4598  137.1429   90.7407 H   0  0  0  0  0  0  0  0  0  0  0  0
  144.7776  139.3037   89.5993 H   0  0  0  0  0  0  0  0  0  0  0  0
  143.0503  138.9243   89.8577 H   0  0  0  0  0  0  0  0  0  0  0  0
  144.5177  141.2671   90.8009 H   0  0  0  0  0  0  0  0  0  0  0  0
  142.7988  140.8587   91.1220 H   0  0  0  0  0  0  0  0  0  0  0  0
  150.6511  139.2692   91.2748 H   0  0  0  0  0  0  0  0  0  0  0  0
  152.9678  139.8774   90.1678 H   0  0  0  0  0  0  0  0  0  0  0  0
  154.3821  139.8625   88.1114 H   0  0  0  0  0  0  0  0  0  0  0  0
  153.4836  138.9036   85.9816 H   0  0  0  0  0  0  0  0  0  0  0  0
  1  2  2  0
  2  3  1  0
  3  4  1  0
  4  5  1  0
  5  6  1  0
  6  7  1  0
  7  8  1  0
  8  9  1  0
  9 10  1  0
 10 11  1  0
  2 12  1  0
 12 13  2  0
 13 14  1  0
 14 15  2  0
 15 16  1  0
 16 17  2  0
 17 18  1  0
 18 19  1  0
 18 20  2  0
 20 21  1  0
  9  4  1  0
 21 12  1  0
 11  6  1  0
 20 14  1  0
  3 22  1  0
  4 23  1  1
  5 24  1  0
  5 25  1  0
  7 26  1  0
  7 27  1  0
  8 28  1  0
  8 29  1  0
  9 30  1  0
 10 31  1  0
 10 32  1  0
 11 33  1  0
 11 34  1  0
 13 35  1  0
 15 36  1  0
 16 37  1  0
 17 38  1  0
M  END
>  <meeko>  (17)
{"is_sidechain": false}

>  <source_group>  (17)
CHRFAM7A at B face

>  <source_system>  (17)
CHRNA7_encenicline

>  <source_run>  (17)
hybrid_B_face_seed1103_ex32

>  <source_seed>  (17)
1103

>  <vina_pose_rank>  (17)
17

>  <vina_affinity_kcal_mol>  (17)
-4.9649999999999999

>  <vina_rmsd_to_crystal_angstrom>  (17)
6.8362999999999996

$$$$
CHRNA7_encenicline__hybrid_B_face_seed1103_ex32__pose18
     RDKit          3D

 38 41  0  0  0  0  0  0  0  0999 V2000
  151.9030  136.3590   87.8540 O   0  0  0  0  0  0  0  0  0  0  0  0
  151.0280  136.4750   88.6440 C   0  0  0  0  0  0  0  0  0  0  0  0
  149.6880  136.0370   88.3040 N   0  0  0  0  0  0  0  0  0  0  0  0
  149.4300  135.4510   86.9690 C   0  0  1  0  0  0  0  0  0  0  0  0
  148.3040  134.4030   87.0640 C   0  0  0  0  0  0  0  0  0  0  0  0
  147.2350  134.7320   86.2250 N   0  0  0  0  0  0  0  0  0  0  0  0
  147.6630  134.8320   84.9200 C   0  0  0  0  0  0  0  0  0  0  0  0
  148.7200  135.8860   84.7690 C   0  0  0  0  0  0  0  0  0  0  0  0
  149.0060  136.4940   86.0390 C   0  0  0  0  0  0  0  0  0  0  0  0
  147.7760  137.0930   86.5500 C   0  0  0  0  0  0  0  0  0  0  0  0
  146.6750  135.9680   86.6300 C   0  0  0  0  0  0  0  0  0  0  0  0
  151.3240  137.0850   90.0190 C   0  0  0  0  0  0  0  0  0  0  0  0
  151.1510  138.3820   90.3630 C   0  0  0  0  0  0  0  0  0  0  0  0
  151.4710  138.8070   91.6960 C   0  0  0  0  0  0  0  0  0  0  0  0
  151.3510  140.0750   92.2000 C   0  0  0  0  0  0  0  0  0  0  0  0
  151.7060  140.3370   93.5240 C   0  0  0  0  0  0  0  0  0  0  0  0
  152.1860  139.2990   94.3410 C   0  0  0  0  0  0  0  0  0  0  0  0
  152.3090  138.0020   93.8330 C   0  0  0  0  0  0  0  0  0  0  0  0
  152.9170  136.6890   94.8750 Cl  0  0  0  0  0  0  0  0  0  0  0  0
  151.9610  137.7420   92.5290 C   0  0  0  0  0  0  0  0  0  0  0  0
  151.9380  136.2880   91.4390 S   0  0  0  0  0  0  0  0  0  0  0  0
  148.9560  136.1280   88.9560 H   0  0  0  0  0  0  0  0  0  0  0  0
  150.3575  134.9800   86.6114 H   0  0  0  0  0  0  0  0  0  0  0  0
  148.7022  133.4208   86.7695 H   0  0  0  0  0  0  0  0  0  0  0  0
  147.9380  134.3780   88.1010 H   0  0  0  0  0  0  0  0  0  0  0  0
  148.0764  133.8629   84.6038 H   0  0  0  0  0  0  0  0  0  0  0  0
  146.8028  135.1127   84.2945 H   0  0  0  0  0  0  0  0  0  0  0  0
  149.6371  135.4255   84.3729 H   0  0  0  0  0  0  0  0  0  0  0  0
  148.3562  136.6597   84.0768 H   0  0  0  0  0  0  0  0  0  0  0  0
  149.7924  137.2556   85.9313 H   0  0  0  0  0  0  0  0  0  0  0  0
  147.9540  137.5114   87.5516 H   0  0  0  0  0  0  0  0  0  0  0  0
  147.4433  137.9029   85.8841 H   0  0  0  0  0  0  0  0  0  0  0  0
  146.3104  135.8843   87.6644 H   0  0  0  0  0  0  0  0  0  0  0  0
  145.8367  136.2265   85.9664 H   0  0  0  0  0  0  0  0  0  0  0  0
  150.7683  139.1047   89.6273 H   0  0  0  0  0  0  0  0  0  0  0  0
  150.9746  140.8872   91.5608 H   0  0  0  0  0  0  0  0  0  0  0  0
  151.6101  141.3556   93.9280 H   0  0  0  0  0  0  0  0  0  0  0  0
  152.4660  139.5077   95.3841 H   0  0  0  0  0  0  0  0  0  0  0  0
  1  2  2  0
  2  3  1  0
  3  4  1  0
  4  5  1  0
  5  6  1  0
  6  7  1  0
  7  8  1  0
  8  9  1  0
  9 10  1  0
 10 11  1  0
  2 12  1  0
 12 13  2  0
 13 14  1  0
 14 15  2  0
 15 16  1  0
 16 17  2  0
 17 18  1  0
 18 19  1  0
 18 20  2  0
 20 21  1  0
  9  4  1  0
 21 12  1  0
 11  6  1  0
 20 14  1  0
  3 22  1  0
  4 23  1  6
  5 24  1  0
  5 25  1  0
  7 26  1  0
  7 27  1  0
  8 28  1  0
  8 29  1  0
  9 30  1  0
 10 31  1  0
 10 32  1  0
 11 33  1  0
 11 34  1  0
 13 35  1  0
 15 36  1  0
 16 37  1  0
 17 38  1  0
M  END
>  <meeko>  (18)
{"is_sidechain": false}

>  <source_group>  (18)
CHRFAM7A at B face

>  <source_system>  (18)
CHRNA7_encenicline

>  <source_run>  (18)
hybrid_B_face_seed1103_ex32

>  <source_seed>  (18)
1103

>  <vina_pose_rank>  (18)
18

>  <vina_affinity_kcal_mol>  (18)
-4.8959999999999999

>  <vina_rmsd_to_crystal_angstrom>  (18)
8.9426000000000005

$$$$
CHRNA7_encenicline__hybrid_B_face_seed1103_ex32__pose19
     RDKit          3D

 38 41  0  0  0  0  0  0  0  0999 V2000
  150.0210  135.0670   89.8110 O   0  0  0  0  0  0  0  0  0  0  0  0
  150.0650  136.2410   89.6570 C   0  0  0  0  0  0  0  0  0  0  0  0
  149.5710  136.8250   88.4250 N   0  0  0  0  0  0  0  0  0  0  0  0
  149.0180  135.9430   87.3720 C   0  0  1  0  0  0  0  0  0  0  0  0
  147.7110  136.5440   86.8170 C   0  0  0  0  0  0  0  0  0  0  0  0
  147.8010  136.7670   85.4400 N   0  0  0  0  0  0  0  0  0  0  0  0
  148.0850  135.5910   84.7810 C   0  0  0  0  0  0  0  0  0  0  0  0
  149.3830  135.0010   85.2480 C   0  0  0  0  0  0  0  0  0  0  0  0
  149.9680  135.8230   86.2700 C   0  0  0  0  0  0  0  0  0  0  0  0
  150.1990  137.1540   85.7150 C   0  0  0  0  0  0  0  0  0  0  0  0
  148.8260  137.7100   85.1770 C   0  0  0  0  0  0  0  0  0  0  0  0
  150.6430  137.1290   90.7640 C   0  0  0  0  0  0  0  0  0  0  0  0
  151.1980  136.6940   91.9190 C   0  0  0  0  0  0  0  0  0  0  0  0
  151.7000  137.6500   92.8640 C   0  0  0  0  0  0  0  0  0  0  0  0
  152.2880  137.3750   94.0710 C   0  0  0  0  0  0  0  0  0  0  0  0
  152.7280  138.4170   94.8870 C   0  0  0  0  0  0  0  0  0  0  0  0
  152.5680  139.7510   94.4720 C   0  0  0  0  0  0  0  0  0  0  0  0
  151.9690  140.0380   93.2420 C   0  0  0  0  0  0  0  0  0  0  0  0
  151.7700  141.7310   92.7200 Cl  0  0  0  0  0  0  0  0  0  0  0  0
  151.5350  139.0130   92.4360 C   0  0  0  0  0  0  0  0  0  0  0  0
  150.7280  138.8670   90.8130 S   0  0  0  0  0  0  0  0  0  0  0  0
  149.6020  137.7990   88.2910 H   0  0  0  0  0  0  0  0  0  0  0  0
  148.8248  134.9543   87.8138 H   0  0  0  0  0  0  0  0  0  0  0  0
  146.8835  135.8466   87.0140 H   0  0  0  0  0  0  0  0  0  0  0  0
  147.5327  137.5086   87.3148 H   0  0  0  0  0  0  0  0  0  0  0  0
  147.2758  134.8704   84.9702 H   0  0  0  0  0  0  0  0  0  0  0  0
  148.1707  135.8087   83.7062 H   0  0  0  0  0  0  0  0  0  0  0  0
  149.1988  133.9951   85.6533 H   0  0  0  0  0  0  0  0  0  0  0  0
  150.0761  134.9443   84.3957 H   0  0  0  0  0  0  0  0  0  0  0  0
  150.9116  135.3814   86.6231 H   0  0  0  0  0  0  0  0  0  0  0  0
  150.5895  137.8209   86.4978 H   0  0  0  0  0  0  0  0  0  0  0  0
  150.9335  137.1020   84.8978 H   0  0  0  0  0  0  0  0  0  0  0  0
  148.5907  138.6583   85.6823 H   0  0  0  0  0  0  0  0  0  0  0  0
  148.8984  137.8815   84.0929 H   0  0  0  0  0  0  0  0  0  0  0  0
  151.2637  135.6167   92.1316 H   0  0  0  0  0  0  0  0  0  0  0  0
  152.4130  136.3317   94.3964 H   0  0  0  0  0  0  0  0  0  0  0  0
  153.2003  138.1953   95.8554 H   0  0  0  0  0  0  0  0  0  0  0  0
  152.9153  140.5713   95.1173 H   0  0  0  0  0  0  0  0  0  0  0  0
  1  2  2  0
  2  3  1  0
  3  4  1  0
  4  5  1  0
  5  6  1  0
  6  7  1  0
  7  8  1  0
  8  9  1  0
  9 10  1  0
 10 11  1  0
  2 12  1  0
 12 13  2  0
 13 14  1  0
 14 15  2  0
 15 16  1  0
 16 17  2  0
 17 18  1  0
 18 19  1  0
 18 20  2  0
 20 21  1  0
  9  4  1  0
 21 12  1  0
 11  6  1  0
 20 14  1  0
  3 22  1  0
  4 23  1  1
  5 24  1  0
  5 25  1  0
  7 26  1  0
  7 27  1  0
  8 28  1  0
  8 29  1  0
  9 30  1  0
 10 31  1  0
 10 32  1  0
 11 33  1  0
 11 34  1  0
 13 35  1  0
 15 36  1  0
 16 37  1  0
 17 38  1  0
M  END
>  <meeko>  (19)
{"is_sidechain": false}

>  <source_group>  (19)
CHRFAM7A at B face

>  <source_system>  (19)
CHRNA7_encenicline

>  <source_run>  (19)
hybrid_B_face_seed1103_ex32

>  <source_seed>  (19)
1103

>  <vina_pose_rank>  (19)
19

>  <vina_affinity_kcal_mol>  (19)
-4.8689999999999998

>  <vina_rmsd_to_crystal_angstrom>  (19)
9.0646000000000004

$$$$
CHRNA7_encenicline__hybrid_B_face_seed1103_ex32__pose20
     RDKit          3D

 38 41  0  0  0  0  0  0  0  0999 V2000
  146.9720  144.0020   93.7020 O   0  0  0  0  0  0  0  0  0  0  0  0
  146.3920  144.0250   94.7340 C   0  0  0  0  0  0  0  0  0  0  0  0
  146.8190  144.9330   95.7810 N   0  0  0  0  0  0  0  0  0  0  0  0
  147.9800  145.8210   95.5450 C   0  0  1  0  0  0  0  0  0  0  0  0
  147.7700  146.6290   94.2490 C   0  0  0  0  0  0  0  0  0  0  0  0
  147.8050  148.0030   94.4980 N   0  0  0  0  0  0  0  0  0  0  0  0
  149.0070  148.3560   95.0720 C   0  0  0  0  0  0  0  0  0  0  0  0
  149.2260  147.6370   96.3700 C   0  0  0  0  0  0  0  0  0  0  0  0
  148.1220  146.7630   96.6520 C   0  0  0  0  0  0  0  0  0  0  0  0
  146.9050  147.5680   96.7280 C   0  0  0  0  0  0  0  0  0  0  0  0
  146.7480  148.3560   95.3720 C   0  0  0  0  0  0  0  0  0  0  0  0
  145.1930  143.0950   94.9510 C   0  0  0  0  0  0  0  0  0  0  0  0
  144.9660  141.9310   94.2980 C   0  0  0  0  0  0  0  0  0  0  0  0
  143.7950  141.1630   94.6110 C   0  0  0  0  0  0  0  0  0  0  0  0
  143.4240  139.9720   94.0460 C   0  0  0  0  0  0  0  0  0  0  0  0
  142.2490  139.3400   94.4560 C   0  0  0  0  0  0  0  0  0  0  0  0
  141.4450  139.9270   95.4480 C   0  0  0  0  0  0  0  0  0  0  0  0
  141.8180  141.1430   96.0290 C   0  0  0  0  0  0  0  0  0  0  0  0
  140.7960  141.8820   97.2890 Cl  0  0  0  0  0  0  0  0  0  0  0  0
  142.9750  141.7670   95.6270 C   0  0  0  0  0  0  0  0  0  0  0  0
  143.8630  143.2950   96.0550 S   0  0  0  0  0  0  0  0  0  0  0  0
  146.3400  144.9600   96.6400 H   0  0  0  0  0  0  0  0  0  0  0  0
  148.8820  145.1971   95.4610 H   0  0  0  0  0  0  0  0  0  0  0  0
  148.5662  146.3737   93.5342 H   0  0  0  0  0  0  0  0  0  0  0  0
  146.7822  146.3752   93.8370 H   0  0  0  0  0  0  0  0  0  0  0  0
  149.8228  148.1010   94.3796 H   0  0  0  0  0  0  0  0  0  0  0  0
  148.9898  149.4372   95.2739 H   0  0  0  0  0  0  0  0  0  0  0  0
  150.1500  147.0437   96.3040 H   0  0  0  0  0  0  0  0  0  0  0  0
  149.3090  148.3784   97.1784 H   0  0  0  0  0  0  0  0  0  0  0  0
  148.2909  146.2246   97.5962 H   0  0  0  0  0  0  0  0  0  0  0  0
  146.0346  146.9129   96.8806 H   0  0  0  0  0  0  0  0  0  0  0  0
  146.9682  148.2722   97.5707 H   0  0  0  0  0  0  0  0  0  0  0  0
  145.7853  148.0978   94.9068 H   0  0  0  0  0  0  0  0  0  0  0  0
  146.7802  149.4376   95.5696 H   0  0  0  0  0  0  0  0  0  0  0  0
  145.6735  141.5769   93.5337 H   0  0  0  0  0  0  0  0  0  0  0  0
  144.0524  139.5131   93.2685 H   0  0  0  0  0  0  0  0  0  0  0  0
  141.9523  138.3826   94.0028 H   0  0  0  0  0  0  0  0  0  0  0  0
  140.5187  139.4279   95.7687 H   0  0  0  0  0  0  0  0  0  0  0  0
  1  2  2  0
  2  3  1  0
  3  4  1  0
  4  5  1  0
  5  6  1  0
  6  7  1  0
  7  8  1  0
  8  9  1  0
  9 10  1  0
 10 11  1  0
  2 12  1  0
 12 13  2  0
 13 14  1  0
 14 15  2  0
 15 16  1  0
 16 17  2  0
 17 18  1  0
 18 19  1  0
 18 20  2  0
 20 21  1  0
  9  4  1  0
 21 12  1  0
 11  6  1  0
 20 14  1  0
  3 22  1  0
  4 23  1  6
  5 24  1  0
  5 25  1  0
  7 26  1  0
  7 27  1  0
  8 28  1  0
  8 29  1  0
  9 30  1  0
 10 31  1  0
 10 32  1  0
 11 33  1  0
 11 34  1  0
 13 35  1  0
 15 36  1  0
 16 37  1  0
 17 38  1  0
M  END
>  <meeko>  (20)
{"is_sidechain": false}

>  <source_group>  (20)
CHRFAM7A at B face

>  <source_system>  (20)
CHRNA7_encenicline

>  <source_run>  (20)
hybrid_B_face_seed1103_ex32

>  <source_seed>  (20)
1103

>  <vina_pose_rank>  (20)
20

>  <vina_affinity_kcal_mol>  (20)
-4.7830000000000004

>  <vina_rmsd_to_crystal_angstrom>  (20)
9.8711000000000002

$$$$
