CHRNA7_encenicline__hybrid_B_face_seed1103_ex32__pose01


 22 25  0  0  0  0  0  0  0  0999 V2000
  142.0290  138.1840   94.9380 O   0  0  0  0  0  0  0  0  0  0  0  0
  142.0630  139.3540   94.7590 C   0  0  0  0  0  0  0  0  0  0  0  0
  142.8780  139.8950   93.6890 N   0  0  0  0  0  0  0  0  0  0  0  0
  142.9100  140.8660   93.5320 H   0  0  0  0  0  0  0  0  0  0  0  0
  141.2420  140.2830   95.6610 C   0  0  0  0  0  0  0  0  0  0  0  0
  139.9430  140.1140   95.9970 C   0  0  0  0  0  0  0  0  0  0  0  0
  139.3060  141.0710   96.8560 C   0  0  0  0  0  0  0  0  0  0  0  0
  138.0060  141.0430   97.2890 C   0  0  0  0  0  0  0  0  0  0  0  0
  137.5270  142.0510   98.1260 C   0  0  0  0  0  0  0  0  0  0  0  0
  138.3770  143.0970   98.5240 C   0  0  0  0  0  0  0  0  0  0  0  0
  139.7050  143.1310   98.0860 C   0  0  0  0  0  0  0  0  0  0  0  0
  140.7790  144.4590   98.5970 Cl  0  0  0  0  0  0  0  0  0  0  0  0
  140.1790  142.1390   97.2620 C   0  0  0  0  0  0  0  0  0  0  0  0
  141.7580  141.7450   96.4530 S   0  0  0  0  0  0  0  0  0  0  0  0
  143.6610  138.9750   92.8330 C   0  0  0  0  0  0  0  0  0  0  0  0
  142.9170  138.7330   91.5050 C   0  0  0  0  0  0  0  0  0  0  0  0
  143.7000  139.1100   90.4100 N   0  0  0  0  0  0  0  0  0  0  0  0
  144.8890  138.4130   90.4080 C   0  0  0  0  0  0  0  0  0  0  0  0
  145.6750  138.6670   91.6600 C   0  0  0  0  0  0  0  0  0  0  0  0
  144.9620  139.5630   92.5270 C   0  0  0  0  0  0  0  0  0  0  0  0
  144.7430  140.8180   91.8130 C   0  0  0  0  0  0  0  0  0  0  0  0
  143.9730  140.4980   90.4750 C   0  0  0  0  0  0  0  0  0  0  0  0
  1  2  2  0
  2  3  1  0
  3 15  1  0
 15 16  1  0
 16 17  1  0
 17 18  1  0
 18 19  1  0
 19 20  1  0
 20 21  1  0
 21 22  1  0
  2  5  1  0
  5  6  2  0
  6  7  1  0
  7  8  2  0
  8  9  1  0
  9 10  2  0
 10 11  1  0
 11 12  1  0
 11 13  2  0
 13 14  1  0
 20 15  1  0
 14  5  1  0
 22 17  1  0
 13  7  1  0
  3  4  1  0
M  END
> <meeko>
{"is_sidechain": false}

> <source_group>
CHRFAM7A at B face

> <source_system>
CHRNA7_encenicline

> <source_run>
hybrid_B_face_seed1103_ex32

> <source_seed>
1103

> <vina_pose_rank>
1

> <vina_affinity_kcal_mol>
-6.4039999999999999

> <vina_rmsd_to_crystal_angstrom>
8.3041

> <minimizedAffinity>
-6.41095

> <CNNscore>
0.0669022352

> <CNNaffinity>
4.1177425385

> <CNN_VS>
0.2754861712

> <CNNaffinity_variance>
1.5044242144

$$$$
CHRNA7_encenicline__hybrid_B_face_seed1103_ex32__pose02


 22 25  0  0  0  0  0  0  0  0999 V2000
  143.8670  140.9300   95.6780 O   0  0  0  0  0  0  0  0  0  0  0  0
  142.8260  140.8130   95.1240 C   0  0  0  0  0  0  0  0  0  0  0  0
  142.7910  140.3660   93.7450 N   0  0  0  0  0  0  0  0  0  0  0  0
  141.9310  140.2640   93.2780 H   0  0  0  0  0  0  0  0  0  0  0  0
  141.5280  141.1310   95.8730 C   0  0  0  0  0  0  0  0  0  0  0  0
  141.2920  142.2410   96.6120 C   0  0  0  0  0  0  0  0  0  0  0  0
  140.0210  142.4020   97.2570 C   0  0  0  0  0  0  0  0  0  0  0  0
  139.6260  143.4600   98.0330 C   0  0  0  0  0  0  0  0  0  0  0  0
  138.3510  143.4740   98.5980 C   0  0  0  0  0  0  0  0  0  0  0  0
  137.4700  142.4030   98.3710 C   0  0  0  0  0  0  0  0  0  0  0  0
  137.8660  141.3210   97.5800 C   0  0  0  0  0  0  0  0  0  0  0  0
  136.7430  139.9650   97.2940 Cl  0  0  0  0  0  0  0  0  0  0  0  0
  139.1220  141.3040   97.0220 C   0  0  0  0  0  0  0  0  0  0  0  0
  140.0750  140.1770   95.9620 S   0  0  0  0  0  0  0  0  0  0  0  0
  144.0600  140.0650   93.0440 C   0  0  0  0  0  0  0  0  0  0  0  0
  144.5010  138.6200   93.3530 C   0  0  0  0  0  0  0  0  0  0  0  0
  144.6230  137.8670   92.1820 N   0  0  0  0  0  0  0  0  0  0  0  0
  145.5310  138.4540   91.3270 C   0  0  0  0  0  0  0  0  0  0  0  0
  145.1100  139.8430   90.9510 C   0  0  0  0  0  0  0  0  0  0  0  0
  143.8760  140.1860   91.6010 C   0  0  0  0  0  0  0  0  0  0  0  0
  142.8550  139.2280   91.1850 C   0  0  0  0  0  0  0  0  0  0  0  0
  143.3650  137.7790   91.5380 C   0  0  0  0  0  0  0  0  0  0  0  0
  1  2  2  0
  2  3  1  0
  3 15  1  0
 15 16  1  0
 16 17  1  0
 17 18  1  0
 18 19  1  0
 19 20  1  0
 20 21  1  0
 21 22  1  0
  2  5  1  0
  5  6  2  0
  6  7  1  0
  7  8  2  0
  8  9  1  0
  9 10  2  0
 10 11  1  0
 11 12  1  0
 11 13  2  0
 13 14  1  0
 20 15  1  0
 14  5  1  0
 22 17  1  0
 13  7  1  0
  3  4  1  0
M  END
> <meeko>
{"is_sidechain": false}

> <source_group>
CHRFAM7A at B face

> <source_system>
CHRNA7_encenicline

> <source_run>
hybrid_B_face_seed1103_ex32

> <source_seed>
1103

> <vina_pose_rank>
2

> <vina_affinity_kcal_mol>
-6.141

> <vina_rmsd_to_crystal_angstrom>
8.6295000000000002

> <minimizedAffinity>
-6.21871

> <CNNscore>
0.1315889060

> <CNNaffinity>
4.5287623405

> <CNN_VS>
0.5959348679

> <CNNaffinity_variance>
1.2404209375

$$$$
CHRNA7_encenicline__hybrid_B_face_seed1103_ex32__pose03


 22 25  0  0  0  0  0  0  0  0999 V2000
  146.4690  144.5950   93.6480 O   0  0  0  0  0  0  0  0  0  0  0  0
  146.5940  143.5880   94.2600 C   0  0  0  0  0  0  0  0  0  0  0  0
  147.8790  143.2540   94.8430 N   0  0  0  0  0  0  0  0  0  0  0  0
  147.9900  142.4210   95.3550 H   0  0  0  0  0  0  0  0  0  0  0  0
  145.3920  142.6520   94.4320 C   0  0  0  0  0  0  0  0  0  0  0  0
  144.3340  142.8640   95.2490 C   0  0  0  0  0  0  0  0  0  0  0  0
  143.2790  141.8940   95.3030 C   0  0  0  0  0  0  0  0  0  0  0  0
  142.1460  141.9600   96.0710 C   0  0  0  0  0  0  0  0  0  0  0  0
  141.2040  140.9320   96.0170 C   0  0  0  0  0  0  0  0  0  0  0  0
  141.4170  139.8280   95.1740 C   0  0  0  0  0  0  0  0  0  0  0  0
  142.5710  139.7550   94.3860 C   0  0  0  0  0  0  0  0  0  0  0  0
  142.8340  138.3520   93.3170 Cl  0  0  0  0  0  0  0  0  0  0  0  0
  143.5000  140.7660   94.4380 C   0  0  0  0  0  0  0  0  0  0  0  0
  145.0950  141.1280   93.6460 S   0  0  0  0  0  0  0  0  0  0  0  0
  149.0230  144.1760   94.6610 C   0  0  0  0  0  0  0  0  0  0  0  0
  149.4360  144.7740   96.0210 C   0  0  0  0  0  0  0  0  0  0  0  0
  150.7700  144.4820   96.3170 N   0  0  0  0  0  0  0  0  0  0  0  0
  151.5990  144.9670   95.3280 C   0  0  0  0  0  0  0  0  0  0  0  0
  151.2700  144.3640   93.9950 C   0  0  0  0  0  0  0  0  0  0  0  0
  150.1670  143.4520   94.1140 C   0  0  0  0  0  0  0  0  0  0  0  0
  150.5380  142.4010   95.0570 C   0  0  0  0  0  0  0  0  0  0  0  0
  150.9390  143.0800   96.4220 C   0  0  0  0  0  0  0  0  0  0  0  0
  1  2  2  0
  2  3  1  0
  3 15  1  0
 15 16  1  0
 16 17  1  0
 17 18  1  0
 18 19  1  0
 19 20  1  0
 20 21  1  0
 21 22  1  0
  2  5  1  0
  5  6  2  0
  6  7  1  0
  7  8  2  0
  8  9  1  0
  9 10  2  0
 10 11  1  0
 11 12  1  0
 11 13  2  0
 13 14  1  0
 20 15  1  0
 14  5  1  0
 22 17  1  0
 13  7  1  0
  3  4  1  0
M  END
> <meeko>
{"is_sidechain": false}

> <source_group>
CHRFAM7A at B face

> <source_system>
CHRNA7_encenicline

> <source_run>
hybrid_B_face_seed1103_ex32

> <source_seed>
1103

> <vina_pose_rank>
3

> <vina_affinity_kcal_mol>
-5.8259999999999996

> <vina_rmsd_to_crystal_angstrom>
9.8984000000000005

> <minimizedAffinity>
-5.81924

> <CNNscore>
0.0562282465

> <CNNaffinity>
3.6323251724

> <CNN_VS>
0.2042392790

> <CNNaffinity_variance>
1.2286671400

$$$$
CHRNA7_encenicline__hybrid_B_face_seed1103_ex32__pose04


 22 25  0  0  0  0  0  0  0  0999 V2000
  140.9740  141.2060   89.1290 O   0  0  0  0  0  0  0  0  0  0  0  0
  141.5200  140.2130   88.7870 C   0  0  0  0  0  0  0  0  0  0  0  0
  142.5980  139.6700   89.5920 N   0  0  0  0  0  0  0  0  0  0  0  0
  143.0550  138.8430   89.3160 H   0  0  0  0  0  0  0  0  0  0  0  0
  141.0790  139.5100   87.4980 C   0  0  0  0  0  0  0  0  0  0  0  0
  141.7880  139.4500   86.3470 C   0  0  0  0  0  0  0  0  0  0  0  0
  141.2440  138.7500   85.2190 C   0  0  0  0  0  0  0  0  0  0  0  0
  141.8320  138.5970   83.9910 C   0  0  0  0  0  0  0  0  0  0  0  0
  141.1740  137.8870   82.9850 C   0  0  0  0  0  0  0  0  0  0  0  0
  139.9090  137.3290   83.2320 C   0  0  0  0  0  0  0  0  0  0  0  0
  139.3040  137.4810   84.4840 C   0  0  0  0  0  0  0  0  0  0  0  0
  137.6980  136.7680   84.7910 Cl  0  0  0  0  0  0  0  0  0  0  0  0
  139.9490  138.1800   85.4750 C   0  0  0  0  0  0  0  0  0  0  0  0
  139.6020  138.6390   87.2000 S   0  0  0  0  0  0  0  0  0  0  0  0
  143.0030  140.3690   90.8320 C   0  0  0  0  0  0  0  0  0  0  0  0
  142.2530  139.7740   92.0400 C   0  0  0  0  0  0  0  0  0  0  0  0
  143.1430  139.2800   92.9970 N   0  0  0  0  0  0  0  0  0  0  0  0
  143.9890  140.2790   93.4260 C   0  0  0  0  0  0  0  0  0  0  0  0
  144.7870  140.8470   92.2890 C   0  0  0  0  0  0  0  0  0  0  0  0
  144.4360  140.1980   91.0570 C   0  0  0  0  0  0  0  0  0  0  0  0
  144.7120  138.7700   91.1930 C   0  0  0  0  0  0  0  0  0  0  0  0
  143.9090  138.2280   92.4360 C   0  0  0  0  0  0  0  0  0  0  0  0
  1  2  2  0
  2  3  1  0
  3 15  1  0
 15 16  1  0
 16 17  1  0
 17 18  1  0
 18 19  1  0
 19 20  1  0
 20 21  1  0
 21 22  1  0
  2  5  1  0
  5  6  2  0
  6  7  1  0
  7  8  2  0
  8  9  1  0
  9 10  2  0
 10 11  1  0
 11 12  1  0
 11 13  2  0
 13 14  1  0
 20 15  1  0
 14  5  1  0
 22 17  1  0
 13  7  1  0
  3  4  1  0
M  END
> <meeko>
{"is_sidechain": false}

> <source_group>
CHRFAM7A at B face

> <source_system>
CHRNA7_encenicline

> <source_run>
hybrid_B_face_seed1103_ex32

> <source_seed>
1103

> <vina_pose_rank>
4

> <vina_affinity_kcal_mol>
-5.6749999999999998

> <vina_rmsd_to_crystal_angstrom>
7.2944000000000004

> <minimizedAffinity>
-5.69423

> <CNNscore>
0.1448805332

> <CNNaffinity>
4.3484454155

> <CNN_VS>
0.6300050616

> <CNNaffinity_variance>
1.5313247442

$$$$
CHRNA7_encenicline__hybrid_B_face_seed1103_ex32__pose05


 22 25  0  0  0  0  0  0  0  0999 V2000
  146.7710  144.2150   93.4880 O   0  0  0  0  0  0  0  0  0  0  0  0
  146.3110  143.9040   94.5340 C   0  0  0  0  0  0  0  0  0  0  0  0
  146.7750  144.5510   95.7460 N   0  0  0  0  0  0  0  0  0  0  0  0
  146.3960  144.3000   96.6190 H   0  0  0  0  0  0  0  0  0  0  0  0
  145.2260  142.8230   94.5930 C   0  0  0  0  0  0  0  0  0  0  0  0
  144.1390  142.8370   95.3990 C   0  0  0  0  0  0  0  0  0  0  0  0
  143.2040  141.7490   95.3410 C   0  0  0  0  0  0  0  0  0  0  0  0
  142.0600  141.6150   96.0830 C   0  0  0  0  0  0  0  0  0  0  0  0
  141.2470  140.4930   95.9150 C   0  0  0  0  0  0  0  0  0  0  0  0
  141.6010  139.5010   94.9850 C   0  0  0  0  0  0  0  0  0  0  0  0
  142.7660  139.6330   94.2230 C   0  0  0  0  0  0  0  0  0  0  0  0
  143.2090  138.3730   93.0430 Cl  0  0  0  0  0  0  0  0  0  0  0  0
  143.5690  140.7370   94.3870 C   0  0  0  0  0  0  0  0  0  0  0  0
  145.1220  141.3520   93.6690 S   0  0  0  0  0  0  0  0  0  0  0  0
  147.8240  145.5920   95.6600 C   0  0  0  0  0  0  0  0  0  0  0  0
  147.1740  146.9880   95.5900 C   0  0  0  0  0  0  0  0  0  0  0  0
  147.6020  147.7990   96.6440 N   0  0  0  0  0  0  0  0  0  0  0  0
  148.9740  147.9270   96.6250 C   0  0  0  0  0  0  0  0  0  0  0  0
  149.6500  146.5940   96.7520 C   0  0  0  0  0  0  0  0  0  0  0  0
  148.6750  145.5440   96.8460 C   0  0  0  0  0  0  0  0  0  0  0  0
  147.8420  145.7930   98.0190 C   0  0  0  0  0  0  0  0  0  0  0  0
  147.2040  147.2270   97.8780 C   0  0  0  0  0  0  0  0  0  0  0  0
  1  2  2  0
  2  3  1  0
  3 15  1  0
 15 16  1  0
 16 17  1  0
 17 18  1  0
 18 19  1  0
 19 20  1  0
 20 21  1  0
 21 22  1  0
  2  5  1  0
  5  6  2  0
  6  7  1  0
  7  8  2  0
  8  9  1  0
  9 10  2  0
 10 11  1  0
 11 12  1  0
 11 13  2  0
 13 14  1  0
 20 15  1  0
 14  5  1  0
 22 17  1  0
 13  7  1  0
  3  4  1  0
M  END
> <meeko>
{"is_sidechain": false}

> <source_group>
CHRFAM7A at B face

> <source_system>
CHRNA7_encenicline

> <source_run>
hybrid_B_face_seed1103_ex32

> <source_seed>
1103

> <vina_pose_rank>
5

> <vina_affinity_kcal_mol>
-5.6719999999999997

> <vina_rmsd_to_crystal_angstrom>
9.8343000000000007

> <minimizedAffinity>
-5.67572

> <CNNscore>
0.0758282915

> <CNNaffinity>
3.6611721516

> <CNN_VS>
0.2776204348

> <CNNaffinity_variance>
0.9400169849

$$$$
CHRNA7_encenicline__hybrid_B_face_seed1103_ex32__pose06


 22 25  0  0  0  0  0  0  0  0999 V2000
  146.0520  144.8460   96.0250 O   0  0  0  0  0  0  0  0  0  0  0  0
  146.1630  144.2470   95.0100 C   0  0  0  0  0  0  0  0  0  0  0  0
  147.1310  144.6800   94.0200 N   0  0  0  0  0  0  0  0  0  0  0  0
  147.2320  144.1860   93.1750 H   0  0  0  0  0  0  0  0  0  0  0  0
  145.2850  143.0170   94.7550 C   0  0  0  0  0  0  0  0  0  0  0  0
  145.5850  141.9880   93.9290 C   0  0  0  0  0  0  0  0  0  0  0  0
  144.6600  140.8990   93.7940 C   0  0  0  0  0  0  0  0  0  0  0  0
  144.8150  139.7890   93.0070 C   0  0  0  0  0  0  0  0  0  0  0  0
  143.8220  138.8090   92.9780 C   0  0  0  0  0  0  0  0  0  0  0  0
  142.6620  138.9610   93.7570 C   0  0  0  0  0  0  0  0  0  0  0  0
  142.4980  140.0920   94.5630 C   0  0  0  0  0  0  0  0  0  0  0  0
  141.0260  140.2790   95.5510 Cl  0  0  0  0  0  0  0  0  0  0  0  0
  143.4750  141.0580   94.5930 C   0  0  0  0  0  0  0  0  0  0  0  0
  143.7290  142.6460   95.4410 S   0  0  0  0  0  0  0  0  0  0  0  0
  147.9670  145.8720   94.2920 C   0  0  0  0  0  0  0  0  0  0  0  0
  149.3360  145.4370   94.8520 C   0  0  0  0  0  0  0  0  0  0  0  0
  150.3810  145.8960   94.0470 N   0  0  0  0  0  0  0  0  0  0  0  0
  150.3400  147.2700   93.9450 C   0  0  0  0  0  0  0  0  0  0  0  0
  149.0450  147.7360   93.3470 C   0  0  0  0  0  0  0  0  0  0  0  0
  148.1950  146.6150   93.0560 C   0  0  0  0  0  0  0  0  0  0  0  0
  148.8910  145.7410   92.1160 C   0  0  0  0  0  0  0  0  0  0  0  0
  150.2720  145.3280   92.7540 C   0  0  0  0  0  0  0  0  0  0  0  0
  1  2  2  0
  2  3  1  0
  3 15  1  0
 15 16  1  0
 16 17  1  0
 17 18  1  0
 18 19  1  0
 19 20  1  0
 20 21  1  0
 21 22  1  0
  2  5  1  0
  5  6  2  0
  6  7  1  0
  7  8  2  0
  8  9  1  0
  9 10  2  0
 10 11  1  0
 11 12  1  0
 11 13  2  0
 13 14  1  0
 20 15  1  0
 14  5  1  0
 22 17  1  0
 13  7  1  0
  3  4  1  0
M  END
> <meeko>
{"is_sidechain": false}

> <source_group>
CHRFAM7A at B face

> <source_system>
CHRNA7_encenicline

> <source_run>
hybrid_B_face_seed1103_ex32

> <source_seed>
1103

> <vina_pose_rank>
6

> <vina_affinity_kcal_mol>
-5.6269999999999998

> <vina_rmsd_to_crystal_angstrom>
9.3454999999999995

> <minimizedAffinity>
-5.62398

> <CNNscore>
0.0703970939

> <CNNaffinity>
3.5312721729

> <CNN_VS>
0.2485913038

> <CNNaffinity_variance>
1.6230281591

$$$$
CHRNA7_encenicline__hybrid_B_face_seed1103_ex32__pose07


 22 25  0  0  0  0  0  0  0  0999 V2000
  147.5630  138.5310   90.0670 O   0  0  0  0  0  0  0  0  0  0  0  0
  147.7610  138.3050   91.2120 C   0  0  0  0  0  0  0  0  0  0  0  0
  146.6600  138.3370   92.1550 N   0  0  0  0  0  0  0  0  0  0  0  0
  146.8160  138.1480   93.1080 H   0  0  0  0  0  0  0  0  0  0  0  0
  149.1820  137.9760   91.6850 C   0  0  0  0  0  0  0  0  0  0  0  0
  149.8780  138.6510   92.6280 C   0  0  0  0  0  0  0  0  0  0  0  0
  151.2050  138.2220   92.9680 C   0  0  0  0  0  0  0  0  0  0  0  0
  152.0350  138.7920   93.8960 C   0  0  0  0  0  0  0  0  0  0  0  0
  153.3060  138.2600   94.1170 C   0  0  0  0  0  0  0  0  0  0  0  0
  153.7350  137.1380   93.3870 C   0  0  0  0  0  0  0  0  0  0  0  0
  152.8910  136.5510   92.4390 C   0  0  0  0  0  0  0  0  0  0  0  0
  153.4390  135.1270   91.5170 Cl  0  0  0  0  0  0  0  0  0  0  0  0
  151.6390  137.0730   92.2200 C   0  0  0  0  0  0  0  0  0  0  0  0
  150.2240  136.6920   91.1440 S   0  0  0  0  0  0  0  0  0  0  0  0
  145.2970  138.6580   91.6720 C   0  0  0  0  0  0  0  0  0  0  0  0
  144.2480  137.9390   92.5430 C   0  0  0  0  0  0  0  0  0  0  0  0
  143.3700  138.8510   93.1340 N   0  0  0  0  0  0  0  0  0  0  0  0
  142.7330  139.5990   92.1680 C   0  0  0  0  0  0  0  0  0  0  0  0
  143.7160  140.3650   91.3320 C   0  0  0  0  0  0  0  0  0  0  0  0
  145.0590  140.0950   91.7640 C   0  0  0  0  0  0  0  0  0  0  0  0
  145.1810  140.4920   93.1640 C   0  0  0  0  0  0  0  0  0  0  0  0
  144.0900  139.7160   93.9950 C   0  0  0  0  0  0  0  0  0  0  0  0
  1  2  2  0
  2  3  1  0
  3 15  1  0
 15 16  1  0
 16 17  1  0
 17 18  1  0
 18 19  1  0
 19 20  1  0
 20 21  1  0
 21 22  1  0
  2  5  1  0
  5  6  2  0
  6  7  1  0
  7  8  2  0
  8  9  1  0
  9 10  2  0
 10 11  1  0
 11 12  1  0
 11 13  2  0
 13 14  1  0
 20 15  1  0
 14  5  1  0
 22 17  1  0
 13  7  1  0
  3  4  1  0
M  END
> <meeko>
{"is_sidechain": false}

> <source_group>
CHRFAM7A at B face

> <source_system>
CHRNA7_encenicline

> <source_run>
hybrid_B_face_seed1103_ex32

> <source_seed>
1103

> <vina_pose_rank>
7

> <vina_affinity_kcal_mol>
-5.5449999999999999

> <vina_rmsd_to_crystal_angstrom>
6.4009999999999998

> <minimizedAffinity>
-5.53909

> <CNNscore>
0.0783516616

> <CNNaffinity>
3.9300816059

> <CNN_VS>
0.3079284132

> <CNNaffinity_variance>
1.1623769999

$$$$
CHRNA7_encenicline__hybrid_B_face_seed1103_ex32__pose08


 22 25  0  0  0  0  0  0  0  0999 V2000
  146.0420  145.2400   95.7300 O   0  0  0  0  0  0  0  0  0  0  0  0
  146.1990  144.4600   94.8530 C   0  0  0  0  0  0  0  0  0  0  0  0
  147.2420  144.6810   93.8700 N   0  0  0  0  0  0  0  0  0  0  0  0
  147.3810  144.0360   93.1400 H   0  0  0  0  0  0  0  0  0  0  0  0
  145.2980  143.2220   94.7680 C   0  0  0  0  0  0  0  0  0  0  0  0
  144.1200  143.0550   95.4120 C   0  0  0  0  0  0  0  0  0  0  0  0
  143.3840  141.8360   95.2330 C   0  0  0  0  0  0  0  0  0  0  0  0
  142.1830  141.5150   95.8080 C   0  0  0  0  0  0  0  0  0  0  0  0
  141.5870  140.2830   95.5370 C   0  0  0  0  0  0  0  0  0  0  0  0
  142.2180  139.3710   94.6740 C   0  0  0  0  0  0  0  0  0  0  0  0
  143.4430  139.6940   94.0820 C   0  0  0  0  0  0  0  0  0  0  0  0
  144.2390  138.5340   92.9860 Cl  0  0  0  0  0  0  0  0  0  0  0  0
  144.0330  140.9070   94.3480 C   0  0  0  0  0  0  0  0  0  0  0  0
  145.5560  141.7660   93.8510 S   0  0  0  0  0  0  0  0  0  0  0  0
  148.0980  145.8850   93.9760 C   0  0  0  0  0  0  0  0  0  0  0  0
  149.3630  145.5600   94.7950 C   0  0  0  0  0  0  0  0  0  0  0  0
  150.5220  145.8000   94.0530 N   0  0  0  0  0  0  0  0  0  0  0  0
  150.5640  147.1140   93.6410 C   0  0  0  0  0  0  0  0  0  0  0  0
  149.3800  147.4580   92.7870 C   0  0  0  0  0  0  0  0  0  0  0  0
  148.5160  146.3190   92.6460 C   0  0  0  0  0  0  0  0  0  0  0  0
  149.2770  145.2370   92.0270 C   0  0  0  0  0  0  0  0  0  0  0  0
  150.5450  144.9530   92.9180 C   0  0  0  0  0  0  0  0  0  0  0  0
  1  2  2  0
  2  3  1  0
  3 15  1  0
 15 16  1  0
 16 17  1  0
 17 18  1  0
 18 19  1  0
 19 20  1  0
 20 21  1  0
 21 22  1  0
  2  5  1  0
  5  6  2  0
  6  7  1  0
  7  8  2  0
  8  9  1  0
  9 10  2  0
 10 11  1  0
 11 12  1  0
 11 13  2  0
 13 14  1  0
 20 15  1  0
 14  5  1  0
 22 17  1  0
 13  7  1  0
  3  4  1  0
M  END
> <meeko>
{"is_sidechain": false}

> <source_group>
CHRFAM7A at B face

> <source_system>
CHRNA7_encenicline

> <source_run>
hybrid_B_face_seed1103_ex32

> <source_seed>
1103

> <vina_pose_rank>
8

> <vina_affinity_kcal_mol>
-5.4480000000000004

> <vina_rmsd_to_crystal_angstrom>
9.4314999999999998

> <minimizedAffinity>
-5.47440

> <CNNscore>
0.0706710592

> <CNNaffinity>
3.6247718334

> <CNN_VS>
0.2561664581

> <CNNaffinity_variance>
1.2005666494

$$$$
CHRNA7_encenicline__hybrid_B_face_seed1103_ex32__pose09


 22 25  0  0  0  0  0  0  0  0999 V2000
  148.5050  137.6550   92.2940 O   0  0  0  0  0  0  0  0  0  0  0  0
  147.9600  138.1260   91.3540 C   0  0  0  0  0  0  0  0  0  0  0  0
  148.6640  138.2330   90.0910 N   0  0  0  0  0  0  0  0  0  0  0  0
  148.2170  138.6210   89.3050 H   0  0  0  0  0  0  0  0  0  0  0  0
  146.5130  138.6160   91.4840 C   0  0  0  0  0  0  0  0  0  0  0  0
  145.7100  138.9900   90.4620 C   0  0  0  0  0  0  0  0  0  0  0  0
  144.3710  139.4260   90.7390 C   0  0  0  0  0  0  0  0  0  0  0  0
  143.4370  139.8330   89.8230 C   0  0  0  0  0  0  0  0  0  0  0  0
  142.1700  140.2330   90.2480 C   0  0  0  0  0  0  0  0  0  0  0  0
  141.8510  140.2190   91.6160 C   0  0  0  0  0  0  0  0  0  0  0  0
  142.7990  139.8030   92.5570 C   0  0  0  0  0  0  0  0  0  0  0  0
  142.3870  139.7850   94.2910 Cl  0  0  0  0  0  0  0  0  0  0  0  0
  144.0480  139.4090   92.1410 C   0  0  0  0  0  0  0  0  0  0  0  0
  145.5700  138.8090   92.9340 S   0  0  0  0  0  0  0  0  0  0  0  0
  150.0610  137.7520   89.9930 C   0  0  0  0  0  0  0  0  0  0  0  0
  150.0910  136.3530   89.3460 C   0  0  0  0  0  0  0  0  0  0  0  0
  150.8690  136.3480   88.1860 N   0  0  0  0  0  0  0  0  0  0  0  0
  152.1550  136.7530   88.4690 C   0  0  0  0  0  0  0  0  0  0  0  0
  152.1790  138.1380   89.0460 C   0  0  0  0  0  0  0  0  0  0  0  0
  150.8440  138.6570   89.1570 C   0  0  0  0  0  0  0  0  0  0  0  0
  150.2480  138.6840   87.8240 C   0  0  0  0  0  0  0  0  0  0  0  0
  150.3020  137.2260   87.2290 C   0  0  0  0  0  0  0  0  0  0  0  0
  1  2  2  0
  2  3  1  0
  3 15  1  0
 15 16  1  0
 16 17  1  0
 17 18  1  0
 18 19  1  0
 19 20  1  0
 20 21  1  0
 21 22  1  0
  2  5  1  0
  5  6  2  0
  6  7  1  0
  7  8  2  0
  8  9  1  0
  9 10  2  0
 10 11  1  0
 11 12  1  0
 11 13  2  0
 13 14  1  0
 20 15  1  0
 14  5  1  0
 22 17  1  0
 13  7  1  0
  3  4  1  0
M  END
> <meeko>
{"is_sidechain": false}

> <source_group>
CHRFAM7A at B face

> <source_system>
CHRNA7_encenicline

> <source_run>
hybrid_B_face_seed1103_ex32

> <source_seed>
1103

> <vina_pose_rank>
9

> <vina_affinity_kcal_mol>
-5.3040000000000003

> <vina_rmsd_to_crystal_angstrom>
8.5684000000000005

> <minimizedAffinity>
-5.28995

> <CNNscore>
0.2563075423

> <CNNaffinity>
5.0432357788

> <CNN_VS>
1.2926193476

> <CNNaffinity_variance>
0.2765572071

$$$$
CHRNA7_encenicline__hybrid_B_face_seed1103_ex32__pose10


 22 25  0  0  0  0  0  0  0  0999 V2000
  151.5610  136.3430   87.3860 O   0  0  0  0  0  0  0  0  0  0  0  0
  150.8020  136.2250   88.2870 C   0  0  0  0  0  0  0  0  0  0  0  0
  149.4990  135.6310   88.0560 N   0  0  0  0  0  0  0  0  0  0  0  0
  148.8630  135.5260   88.8000 H   0  0  0  0  0  0  0  0  0  0  0  0
  151.2060  136.6970   89.6870 C   0  0  0  0  0  0  0  0  0  0  0  0
  152.2210  136.1950   90.4290 C   0  0  0  0  0  0  0  0  0  0  0  0
  152.4830  136.7440   91.7290 C   0  0  0  0  0  0  0  0  0  0  0  0
  153.4670  136.3520   92.5980 C   0  0  0  0  0  0  0  0  0  0  0  0
  153.5980  136.9830   93.8360 C   0  0  0  0  0  0  0  0  0  0  0  0
  152.7190  138.0210   94.1910 C   0  0  0  0  0  0  0  0  0  0  0  0
  151.7140  138.4270   93.3080 C   0  0  0  0  0  0  0  0  0  0  0  0
  150.6040  139.7460   93.7640 Cl  0  0  0  0  0  0  0  0  0  0  0  0
  151.5830  137.8060   92.0890 C   0  0  0  0  0  0  0  0  0  0  0  0
  150.4860  137.9570   90.6470 S   0  0  0  0  0  0  0  0  0  0  0  0
  149.1330  135.1830   86.6930 C   0  0  0  0  0  0  0  0  0  0  0  0
  148.0480  134.0910   86.7720 C   0  0  0  0  0  0  0  0  0  0  0  0
  146.8980  134.4690   86.0740 N   0  0  0  0  0  0  0  0  0  0  0  0
  147.2010  134.7240   84.7540 C   0  0  0  0  0  0  0  0  0  0  0  0
  148.2110  135.8250   84.6270 C   0  0  0  0  0  0  0  0  0  0  0  0
  148.5980  136.3030   85.9250 C   0  0  0  0  0  0  0  0  0  0  0  0
  147.4050  136.8000   86.6070 C   0  0  0  0  0  0  0  0  0  0  0  0
  146.3460  135.6340   86.6610 C   0  0  0  0  0  0  0  0  0  0  0  0
  1  2  2  0
  2  3  1  0
  3 15  1  0
 15 16  1  0
 16 17  1  0
 17 18  1  0
 18 19  1  0
 19 20  1  0
 20 21  1  0
 21 22  1  0
  2  5  1  0
  5  6  2  0
  6  7  1  0
  7  8  2  0
  8  9  1  0
  9 10  2  0
 10 11  1  0
 11 12  1  0
 11 13  2  0
 13 14  1  0
 20 15  1  0
 14  5  1  0
 22 17  1  0
 13  7  1  0
  3  4  1  0
M  END
> <meeko>
{"is_sidechain": false}

> <source_group>
CHRFAM7A at B face

> <source_system>
CHRNA7_encenicline

> <source_run>
hybrid_B_face_seed1103_ex32

> <source_seed>
1103

> <vina_pose_rank>
10

> <vina_affinity_kcal_mol>
-5.2690000000000001

> <vina_rmsd_to_crystal_angstrom>
8.8292000000000002

> <minimizedAffinity>
-5.33025

> <CNNscore>
0.1000856981

> <CNNaffinity>
4.2083911896

> <CNN_VS>
0.4211997688

> <CNNaffinity_variance>
1.1271239519

$$$$
CHRNA7_encenicline__hybrid_B_face_seed1103_ex32__pose11


 22 25  0  0  0  0  0  0  0  0999 V2000
  145.9920  145.3740   94.2540 O   0  0  0  0  0  0  0  0  0  0  0  0
  146.1150  144.4420   94.9740 C   0  0  0  0  0  0  0  0  0  0  0  0
  147.0630  144.5000   96.0700 N   0  0  0  0  0  0  0  0  0  0  0  0
  147.1700  143.7310   96.6750 H   0  0  0  0  0  0  0  0  0  0  0  0
  145.2680  143.1860   94.7420 C   0  0  0  0  0  0  0  0  0  0  0  0
  145.5520  142.1910   93.8700 C   0  0  0  0  0  0  0  0  0  0  0  0
  144.6610  141.0710   93.7640 C   0  0  0  0  0  0  0  0  0  0  0  0
  144.8050  139.9870   92.9380 C   0  0  0  0  0  0  0  0  0  0  0  0
  143.8490  138.9710   92.9450 C   0  0  0  0  0  0  0  0  0  0  0  0
  142.7380  139.0590   93.8000 C   0  0  0  0  0  0  0  0  0  0  0  0
  142.5850  140.1610   94.6470 C   0  0  0  0  0  0  0  0  0  0  0  0
  141.1740  140.2660   95.7310 Cl  0  0  0  0  0  0  0  0  0  0  0  0
  143.5250  141.1640   94.6410 C   0  0  0  0  0  0  0  0  0  0  0  0
  143.7750  142.7380   95.5150 S   0  0  0  0  0  0  0  0  0  0  0  0
  147.8680  145.7260   96.2730 C   0  0  0  0  0  0  0  0  0  0  0  0
  148.1910  145.9020   97.7700 C   0  0  0  0  0  0  0  0  0  0  0  0
  149.5700  145.9400   97.9890 N   0  0  0  0  0  0  0  0  0  0  0  0
  150.1420  146.9680   97.2700 C   0  0  0  0  0  0  0  0  0  0  0  0
  149.9040  146.8050   95.7980 C   0  0  0  0  0  0  0  0  0  0  0  0
  149.1290  145.6220   95.5440 C   0  0  0  0  0  0  0  0  0  0  0  0
  149.8640  144.4700   96.0590 C   0  0  0  0  0  0  0  0  0  0  0  0
  150.1510  144.7110   97.5900 C   0  0  0  0  0  0  0  0  0  0  0  0
  1  2  2  0
  2  3  1  0
  3 15  1  0
 15 16  1  0
 16 17  1  0
 17 18  1  0
 18 19  1  0
 19 20  1  0
 20 21  1  0
 21 22  1  0
  2  5  1  0
  5  6  2  0
  6  7  1  0
  7  8  2  0
  8  9  1  0
  9 10  2  0
 10 11  1  0
 11 12  1  0
 11 13  2  0
 13 14  1  0
 20 15  1  0
 14  5  1  0
 22 17  1  0
 13  7  1  0
  3  4  1  0
M  END
> <meeko>
{"is_sidechain": false}

> <source_group>
CHRFAM7A at B face

> <source_system>
CHRNA7_encenicline

> <source_run>
hybrid_B_face_seed1103_ex32

> <source_seed>
1103

> <vina_pose_rank>
11

> <vina_affinity_kcal_mol>
-5.2069999999999999

> <vina_rmsd_to_crystal_angstrom>
10.087300000000001

> <minimizedAffinity>
-5.22187

> <CNNscore>
0.0676818341

> <CNNaffinity>
3.2729651928

> <CNN_VS>
0.2215202898

> <CNNaffinity_variance>
1.6323534250

$$$$
CHRNA7_encenicline__hybrid_B_face_seed1103_ex32__pose12


 22 25  0  0  0  0  0  0  0  0999 V2000
  145.3950  142.0900   93.5730 O   0  0  0  0  0  0  0  0  0  0  0  0
  145.2070  142.7250   94.5550 C   0  0  0  0  0  0  0  0  0  0  0  0
  146.2120  143.6670   95.0070 N   0  0  0  0  0  0  0  0  0  0  0  0
  146.0620  144.2000   95.8210 H   0  0  0  0  0  0  0  0  0  0  0  0
  143.8990  142.5470   95.3340 C   0  0  0  0  0  0  0  0  0  0  0  0
  143.4990  143.2920   96.3900 C   0  0  0  0  0  0  0  0  0  0  0  0
  142.2410  143.0060   97.0200 C   0  0  0  0  0  0  0  0  0  0  0  0
  141.6950  143.6650   98.0900 C   0  0  0  0  0  0  0  0  0  0  0  0
  140.4560  143.2680   98.5950 C   0  0  0  0  0  0  0  0  0  0  0  0
  139.7690  142.1930   98.0070 C   0  0  0  0  0  0  0  0  0  0  0  0
  140.3210  141.5180   96.9140 C   0  0  0  0  0  0  0  0  0  0  0  0
  139.4430  140.1560   96.1700 Cl  0  0  0  0  0  0  0  0  0  0  0  0
  141.5400  141.9060   96.4140 C   0  0  0  0  0  0  0  0  0  0  0  0
  142.6390  141.3760   95.0660 S   0  0  0  0  0  0  0  0  0  0  0  0
  147.4660  143.8200   94.2350 C   0  0  0  0  0  0  0  0  0  0  0  0
  147.4620  145.1680   93.4870 C   0  0  0  0  0  0  0  0  0  0  0  0
  148.5530  145.9570   93.8590 N   0  0  0  0  0  0  0  0  0  0  0  0
  149.7340  145.2930   93.6060 C   0  0  0  0  0  0  0  0  0  0  0  0
  149.8080  144.0000   94.3630 C   0  0  0  0  0  0  0  0  0  0  0  0
  148.6140  143.8030   95.1370 C   0  0  0  0  0  0  0  0  0  0  0  0
  148.4810  144.9190   96.0710 C   0  0  0  0  0  0  0  0  0  0  0  0
  148.4740  146.2590   95.2410 C   0  0  0  0  0  0  0  0  0  0  0  0
  1  2  2  0
  2  3  1  0
  3 15  1  0
 15 16  1  0
 16 17  1  0
 17 18  1  0
 18 19  1  0
 19 20  1  0
 20 21  1  0
 21 22  1  0
  2  5  1  0
  5  6  2  0
  6  7  1  0
  7  8  2  0
  8  9  1  0
  9 10  2  0
 10 11  1  0
 11 12  1  0
 11 13  2  0
 13 14  1  0
 20 15  1  0
 14  5  1  0
 22 17  1  0
 13  7  1  0
  3  4  1  0
M  END
> <meeko>
{"is_sidechain": false}

> <source_group>
CHRFAM7A at B face

> <source_system>
CHRNA7_encenicline

> <source_run>
hybrid_B_face_seed1103_ex32

> <source_seed>
1103

> <vina_pose_rank>
12

> <vina_affinity_kcal_mol>
-5.1890000000000001

> <vina_rmsd_to_crystal_angstrom>
10.0969

> <minimizedAffinity>
-5.16951

> <CNNscore>
0.1144355014

> <CNNaffinity>
3.7158920765

> <CNN_VS>
0.4252299666

> <CNNaffinity_variance>
0.9024603367

$$$$
CHRNA7_encenicline__hybrid_B_face_seed1103_ex32__pose13


 22 25  0  0  0  0  0  0  0  0999 V2000
  148.0440  143.1350   94.7540 O   0  0  0  0  0  0  0  0  0  0  0  0
  147.0180  143.6060   94.3960 C   0  0  0  0  0  0  0  0  0  0  0  0
  147.0000  144.9300   93.8050 N   0  0  0  0  0  0  0  0  0  0  0  0
  146.1520  145.3270   93.5030 H   0  0  0  0  0  0  0  0  0  0  0  0
  145.7200  142.8080   94.5580 C   0  0  0  0  0  0  0  0  0  0  0  0
  144.6750  143.1480   95.3480 C   0  0  0  0  0  0  0  0  0  0  0  0
  143.5200  142.2970   95.3960 C   0  0  0  0  0  0  0  0  0  0  0  0
  142.3870  142.4990   96.1380 C   0  0  0  0  0  0  0  0  0  0  0  0
  141.3410  141.5770   96.0820 C   0  0  0  0  0  0  0  0  0  0  0  0
  141.4510  140.4400   95.2630 C   0  0  0  0  0  0  0  0  0  0  0  0
  142.6050  140.2290   94.5020 C   0  0  0  0  0  0  0  0  0  0  0  0
  142.7370  138.7850   93.4640 Cl  0  0  0  0  0  0  0  0  0  0  0  0
  143.6360  141.1350   94.5560 C   0  0  0  0  0  0  0  0  0  0  0  0
  145.2760  141.3090   93.7920 S   0  0  0  0  0  0  0  0  0  0  0  0
  148.2690  145.6800   93.6590 C   0  0  0  0  0  0  0  0  0  0  0  0
  148.1610  146.6730   92.4850 C   0  0  0  0  0  0  0  0  0  0  0  0
  148.3820  147.9850   92.9110 N   0  0  0  0  0  0  0  0  0  0  0  0
  149.6250  148.0960   93.4960 C   0  0  0  0  0  0  0  0  0  0  0  0
  149.7540  147.1890   94.6830 C   0  0  0  0  0  0  0  0  0  0  0  0
  148.5440  146.4390   94.8750 C   0  0  0  0  0  0  0  0  0  0  0  0
  147.4470  147.3810   95.0860 C   0  0  0  0  0  0  0  0  0  0  0  0
  147.3880  148.3560   93.8490 C   0  0  0  0  0  0  0  0  0  0  0  0
  1  2  2  0
  2  3  1  0
  3 15  1  0
 15 16  1  0
 16 17  1  0
 17 18  1  0
 18 19  1  0
 19 20  1  0
 20 21  1  0
 21 22  1  0
  2  5  1  0
  5  6  2  0
  6  7  1  0
  7  8  2  0
  8  9  1  0
  9 10  2  0
 10 11  1  0
 11 12  1  0
 11 13  2  0
 13 14  1  0
 20 15  1  0
 14  5  1  0
 22 17  1  0
 13  7  1  0
  3  4  1  0
M  END
> <meeko>
{"is_sidechain": false}

> <source_group>
CHRFAM7A at B face

> <source_system>
CHRNA7_encenicline

> <source_run>
hybrid_B_face_seed1103_ex32

> <source_seed>
1103

> <vina_pose_rank>
13

> <vina_affinity_kcal_mol>
-5.1539999999999999

> <vina_rmsd_to_crystal_angstrom>
9.5540000000000003

> <minimizedAffinity>
-5.18322

> <CNNscore>
0.0535962246

> <CNNaffinity>
3.3479499817

> <CNN_VS>
0.1794374734

> <CNNaffinity_variance>
1.4050121307

$$$$
CHRNA7_encenicline__hybrid_B_face_seed1103_ex32__pose14


 22 25  0  0  0  0  0  0  0  0999 V2000
  139.8320  140.9600   87.7370 O   0  0  0  0  0  0  0  0  0  0  0  0
  140.7470  140.2100   87.7980 C   0  0  0  0  0  0  0  0  0  0  0  0
  141.0930  139.4000   86.6470 N   0  0  0  0  0  0  0  0  0  0  0  0
  141.8530  138.7760   86.6890 H   0  0  0  0  0  0  0  0  0  0  0  0
  141.5580  140.1090   89.0950 C   0  0  0  0  0  0  0  0  0  0  0  0
  142.8680  139.7820   89.1850 C   0  0  0  0  0  0  0  0  0  0  0  0
  143.4950  139.7300   90.4750 C   0  0  0  0  0  0  0  0  0  0  0  0
  144.8040  139.4200   90.7360 C   0  0  0  0  0  0  0  0  0  0  0  0
  145.2700  139.4090   92.0510 C   0  0  0  0  0  0  0  0  0  0  0  0
  144.3980  139.7160   93.1080 C   0  0  0  0  0  0  0  0  0  0  0  0
  143.0610  140.0340   92.8490 C   0  0  0  0  0  0  0  0  0  0  0  0
  141.9590  140.4250   94.1950 Cl  0  0  0  0  0  0  0  0  0  0  0  0
  142.5990  140.0460   91.5550 C   0  0  0  0  0  0  0  0  0  0  0  0
  141.0160  140.3810   90.7260 S   0  0  0  0  0  0  0  0  0  0  0  0
  140.2930  139.5170   85.4060 C   0  0  0  0  0  0  0  0  0  0  0  0
  141.2220  139.7810   84.2050 C   0  0  0  0  0  0  0  0  0  0  0  0
  141.0830  138.7890   83.2310 N   0  0  0  0  0  0  0  0  0  0  0  0
  139.7760  138.7210   82.7980 C   0  0  0  0  0  0  0  0  0  0  0  0
  138.8410  138.4050   83.9280 C   0  0  0  0  0  0  0  0  0  0  0  0
  139.5690  138.2740   85.1590 C   0  0  0  0  0  0  0  0  0  0  0  0
  140.5440  137.1970   85.0050 C   0  0  0  0  0  0  0  0  0  0  0  0
  141.4620  137.5350   83.7700 C   0  0  0  0  0  0  0  0  0  0  0  0
  1  2  2  0
  2  3  1  0
  3 15  1  0
 15 16  1  0
 16 17  1  0
 17 18  1  0
 18 19  1  0
 19 20  1  0
 20 21  1  0
 21 22  1  0
  2  5  1  0
  5  6  2  0
  6  7  1  0
  7  8  2  0
  8  9  1  0
  9 10  2  0
 10 11  1  0
 11 12  1  0
 11 13  2  0
 13 14  1  0
 20 15  1  0
 14  5  1  0
 22 17  1  0
 13  7  1  0
  3  4  1  0
M  END
> <meeko>
{"is_sidechain": false}

> <source_group>
CHRFAM7A at B face

> <source_system>
CHRNA7_encenicline

> <source_run>
hybrid_B_face_seed1103_ex32

> <source_seed>
1103

> <vina_pose_rank>
14

> <vina_affinity_kcal_mol>
-5.1390000000000002

> <vina_rmsd_to_crystal_angstrom>
5.1657999999999999

> <minimizedAffinity>
-5.12431

> <CNNscore>
0.1160872057

> <CNNaffinity>
4.8551888466

> <CNN_VS>
0.5636253357

> <CNNaffinity_variance>
1.1304723024

$$$$
CHRNA7_encenicline__hybrid_B_face_seed1103_ex32__pose15


 22 25  0  0  0  0  0  0  0  0999 V2000
  144.8980  145.1360   98.5140 O   0  0  0  0  0  0  0  0  0  0  0  0
  144.8970  144.5120   97.5080 C   0  0  0  0  0  0  0  0  0  0  0  0
  146.0240  144.6070   96.6000 N   0  0  0  0  0  0  0  0  0  0  0  0
  146.0330  144.0890   95.7630 H   0  0  0  0  0  0  0  0  0  0  0  0
  143.7050  143.6060   97.1780 C   0  0  0  0  0  0  0  0  0  0  0  0
  143.7030  142.5970   96.2770 C   0  0  0  0  0  0  0  0  0  0  0  0
  142.5060  141.8310   96.0770 C   0  0  0  0  0  0  0  0  0  0  0  0
  142.3420  140.7830   95.2100 C   0  0  0  0  0  0  0  0  0  0  0  0
  141.1100  140.1340   95.1260 C   0  0  0  0  0  0  0  0  0  0  0  0
  140.0370  140.5550   95.9300 C   0  0  0  0  0  0  0  0  0  0  0  0
  140.1980  141.6230   96.8170 C   0  0  0  0  0  0  0  0  0  0  0  0
  138.8340  142.1520   97.8360 Cl  0  0  0  0  0  0  0  0  0  0  0  0
  141.4110  142.2650   96.9020 C   0  0  0  0  0  0  0  0  0  0  0  0
  142.1030  143.6480   97.8580 S   0  0  0  0  0  0  0  0  0  0  0  0
  147.1630  145.4890   96.9430 C   0  0  0  0  0  0  0  0  0  0  0  0
  148.4650  144.9230   96.3430 C   0  0  0  0  0  0  0  0  0  0  0  0
  149.0670  145.8440   95.4820 N   0  0  0  0  0  0  0  0  0  0  0  0
  149.3390  147.0180   96.1500 C   0  0  0  0  0  0  0  0  0  0  0  0
  148.0880  147.6370   96.7010 C   0  0  0  0  0  0  0  0  0  0  0  0
  146.9470  146.8220   96.3900 C   0  0  0  0  0  0  0  0  0  0  0  0
  146.8460  146.7060   94.9370 C   0  0  0  0  0  0  0  0  0  0  0  0
  148.2020  146.1150   94.3930 C   0  0  0  0  0  0  0  0  0  0  0  0
  1  2  2  0
  2  3  1  0
  3 15  1  0
 15 16  1  0
 16 17  1  0
 17 18  1  0
 18 19  1  0
 19 20  1  0
 20 21  1  0
 21 22  1  0
  2  5  1  0
  5  6  2  0
  6  7  1  0
  7  8  2  0
  8  9  1  0
  9 10  2  0
 10 11  1  0
 11 12  1  0
 11 13  2  0
 13 14  1  0
 20 15  1  0
 14  5  1  0
 22 17  1  0
 13  7  1  0
  3  4  1  0
M  END
> <meeko>
{"is_sidechain": false}

> <source_group>
CHRFAM7A at B face

> <source_system>
CHRNA7_encenicline

> <source_run>
hybrid_B_face_seed1103_ex32

> <source_seed>
1103

> <vina_pose_rank>
15

> <vina_affinity_kcal_mol>
-5.1210000000000004

> <vina_rmsd_to_crystal_angstrom>
10.610799999999999

> <minimizedAffinity>
-5.13243

> <CNNscore>
0.0975344926

> <CNNaffinity>
3.3787500858

> <CNN_VS>
0.3295446634

> <CNNaffinity_variance>
0.9304907918

$$$$
CHRNA7_encenicline__hybrid_B_face_seed1103_ex32__pose16


 22 25  0  0  0  0  0  0  0  0999 V2000
  147.9950  138.4500   89.5080 O   0  0  0  0  0  0  0  0  0  0  0  0
  147.7530  138.2680   90.6530 C   0  0  0  0  0  0  0  0  0  0  0  0
  148.7360  137.6240   91.5030 N   0  0  0  0  0  0  0  0  0  0  0  0
  148.5430  137.4710   92.4560 H   0  0  0  0  0  0  0  0  0  0  0  0
  146.4040  138.7190   91.2240 C   0  0  0  0  0  0  0  0  0  0  0  0
  146.1210  138.9020   92.5340 C   0  0  0  0  0  0  0  0  0  0  0  0
  144.8060  139.3300   92.9190 C   0  0  0  0  0  0  0  0  0  0  0  0
  144.3630  139.5620   94.1940 C   0  0  0  0  0  0  0  0  0  0  0  0
  143.0490  139.9760   94.4120 C   0  0  0  0  0  0  0  0  0  0  0  0
  142.1790  140.1560   93.3230 C   0  0  0  0  0  0  0  0  0  0  0  0
  142.6260  139.9230   92.0190 C   0  0  0  0  0  0  0  0  0  0  0  0
  141.5180  140.1560   90.6410 Cl  0  0  0  0  0  0  0  0  0  0  0  0
  143.9200  139.5150   91.8020 C   0  0  0  0  0  0  0  0  0  0  0  0
  144.9420  139.0960   90.3580 S   0  0  0  0  0  0  0  0  0  0  0  0
  150.0310  137.1980   90.9260 C   0  0  0  0  0  0  0  0  0  0  0  0
  151.0790  138.3140   91.1080 C   0  0  0  0  0  0  0  0  0  0  0  0
  152.1820  137.8590   91.8350 N   0  0  0  0  0  0  0  0  0  0  0  0
  152.7610  136.7800   91.2030 C   0  0  0  0  0  0  0  0  0  0  0  0
  151.7920  135.6450   91.0580 C   0  0  0  0  0  0  0  0  0  0  0  0
  150.5150  136.0030   91.6100 C   0  0  0  0  0  0  0  0  0  0  0  0
  150.6970  136.3230   93.0230 C   0  0  0  0  0  0  0  0  0  0  0  0
  151.7700  137.4730   93.1340 C   0  0  0  0  0  0  0  0  0  0  0  0
  1  2  2  0
  2  3  1  0
  3 15  1  0
 15 16  1  0
 16 17  1  0
 17 18  1  0
 18 19  1  0
 19 20  1  0
 20 21  1  0
 21 22  1  0
  2  5  1  0
  5  6  2  0
  6  7  1  0
  7  8  2  0
  8  9  1  0
  9 10  2  0
 10 11  1  0
 11 12  1  0
 11 13  2  0
 13 14  1  0
 20 15  1  0
 14  5  1  0
 22 17  1  0
 13  7  1  0
  3  4  1  0
M  END
> <meeko>
{"is_sidechain": false}

> <source_group>
CHRFAM7A at B face

> <source_system>
CHRNA7_encenicline

> <source_run>
hybrid_B_face_seed1103_ex32

> <source_seed>
1103

> <vina_pose_rank>
16

> <vina_affinity_kcal_mol>
-5.0380000000000003

> <vina_rmsd_to_crystal_angstrom>
9.0408000000000008

> <minimizedAffinity>
-5.03877

> <CNNscore>
0.3581523001

> <CNNaffinity>
4.5503234863

> <CNN_VS>
1.6297087669

> <CNNaffinity_variance>
0.5446105599

$$$$
CHRNA7_encenicline__hybrid_B_face_seed1103_ex32__pose17


 22 25  0  0  0  0  0  0  0  0999 V2000
  148.3160  137.7330   92.2080 O   0  0  0  0  0  0  0  0  0  0  0  0
  148.0520  138.1850   91.1460 C   0  0  0  0  0  0  0  0  0  0  0  0
  146.6940  138.6000   90.8570 N   0  0  0  0  0  0  0  0  0  0  0  0
  146.4670  138.9790   89.9770 H   0  0  0  0  0  0  0  0  0  0  0  0
  149.1530  138.3280   90.0880 C   0  0  0  0  0  0  0  0  0  0  0  0
  150.3740  138.8750   90.2860 C   0  0  0  0  0  0  0  0  0  0  0  0
  151.3050  138.9370   89.1960 C   0  0  0  0  0  0  0  0  0  0  0  0
  152.5730  139.4550   89.2320 C   0  0  0  0  0  0  0  0  0  0  0  0
  153.3640  139.4470   88.0820 C   0  0  0  0  0  0  0  0  0  0  0  0
  152.8590  138.9080   86.8870 C   0  0  0  0  0  0  0  0  0  0  0  0
  151.5660  138.3770   86.8430 C   0  0  0  0  0  0  0  0  0  0  0  0
  150.9330  137.6920   85.3230 Cl  0  0  0  0  0  0  0  0  0  0  0  0
  150.7850  138.3840   87.9740 C   0  0  0  0  0  0  0  0  0  0  0  0
  149.1100  137.8380   88.4190 S   0  0  0  0  0  0  0  0  0  0  0  0
  145.6500  138.4510   91.8960 C   0  0  0  0  0  0  0  0  0  0  0  0
  145.4670  139.7830   92.6510 C   0  0  0  0  0  0  0  0  0  0  0  0
  144.1510  140.2430   92.5540 N   0  0  0  0  0  0  0  0  0  0  0  0
  143.2760  139.3040   93.0550 C   0  0  0  0  0  0  0  0  0  0  0  0
  143.3770  138.0080   92.3070 C   0  0  0  0  0  0  0  0  0  0  0  0
  144.3750  138.0990   91.2780 C   0  0  0  0  0  0  0  0  0  0  0  0
  143.9960  139.1720   90.3620 C   0  0  0  0  0  0  0  0  0  0  0  0
  143.8360  140.5000   91.1970 C   0  0  0  0  0  0  0  0  0  0  0  0
  1  2  2  0
  2  3  1  0
  3 15  1  0
 15 16  1  0
 16 17  1  0
 17 18  1  0
 18 19  1  0
 19 20  1  0
 20 21  1  0
 21 22  1  0
  2  5  1  0
  5  6  2  0
  6  7  1  0
  7  8  2  0
  8  9  1  0
  9 10  2  0
 10 11  1  0
 11 12  1  0
 11 13  2  0
 13 14  1  0
 20 15  1  0
 14  5  1  0
 22 17  1  0
 13  7  1  0
  3  4  1  0
M  END
> <meeko>
{"is_sidechain": false}

> <source_group>
CHRFAM7A at B face

> <source_system>
CHRNA7_encenicline

> <source_run>
hybrid_B_face_seed1103_ex32

> <source_seed>
1103

> <vina_pose_rank>
17

> <vina_affinity_kcal_mol>
-4.9649999999999999

> <vina_rmsd_to_crystal_angstrom>
6.8362999999999996

> <minimizedAffinity>
-4.97075

> <CNNscore>
0.0765878707

> <CNNaffinity>
4.7372984886

> <CNN_VS>
0.3628196120

> <CNNaffinity_variance>
0.2747897804

$$$$
CHRNA7_encenicline__hybrid_B_face_seed1103_ex32__pose18


 22 25  0  0  0  0  0  0  0  0999 V2000
  151.9030  136.3590   87.8540 O   0  0  0  0  0  0  0  0  0  0  0  0
  151.0280  136.4750   88.6440 C   0  0  0  0  0  0  0  0  0  0  0  0
  149.6880  136.0370   88.3040 N   0  0  0  0  0  0  0  0  0  0  0  0
  148.9560  136.1280   88.9560 H   0  0  0  0  0  0  0  0  0  0  0  0
  151.3240  137.0850   90.0190 C   0  0  0  0  0  0  0  0  0  0  0  0
  151.1510  138.3820   90.3630 C   0  0  0  0  0  0  0  0  0  0  0  0
  151.4710  138.8070   91.6960 C   0  0  0  0  0  0  0  0  0  0  0  0
  151.3510  140.0750   92.2000 C   0  0  0  0  0  0  0  0  0  0  0  0
  151.7060  140.3370   93.5240 C   0  0  0  0  0  0  0  0  0  0  0  0
  152.1860  139.2990   94.3410 C   0  0  0  0  0  0  0  0  0  0  0  0
  152.3090  138.0020   93.8330 C   0  0  0  0  0  0  0  0  0  0  0  0
  152.9170  136.6890   94.8750 Cl  0  0  0  0  0  0  0  0  0  0  0  0
  151.9610  137.7420   92.5290 C   0  0  0  0  0  0  0  0  0  0  0  0
  151.9380  136.2880   91.4390 S   0  0  0  0  0  0  0  0  0  0  0  0
  149.4300  135.4510   86.9690 C   0  0  0  0  0  0  0  0  0  0  0  0
  148.3040  134.4030   87.0640 C   0  0  0  0  0  0  0  0  0  0  0  0
  147.2350  134.7320   86.2250 N   0  0  0  0  0  0  0  0  0  0  0  0
  147.6630  134.8320   84.9200 C   0  0  0  0  0  0  0  0  0  0  0  0
  148.7200  135.8860   84.7690 C   0  0  0  0  0  0  0  0  0  0  0  0
  149.0060  136.4940   86.0390 C   0  0  0  0  0  0  0  0  0  0  0  0
  147.7760  137.0930   86.5500 C   0  0  0  0  0  0  0  0  0  0  0  0
  146.6750  135.9680   86.6300 C   0  0  0  0  0  0  0  0  0  0  0  0
  1  2  2  0
  2  3  1  0
  3 15  1  0
 15 16  1  0
 16 17  1  0
 17 18  1  0
 18 19  1  0
 19 20  1  0
 20 21  1  0
 21 22  1  0
  2  5  1  0
  5  6  2  0
  6  7  1  0
  7  8  2  0
  8  9  1  0
  9 10  2  0
 10 11  1  0
 11 12  1  0
 11 13  2  0
 13 14  1  0
 20 15  1  0
 14  5  1  0
 22 17  1  0
 13  7  1  0
  3  4  1  0
M  END
> <meeko>
{"is_sidechain": false}

> <source_group>
CHRFAM7A at B face

> <source_system>
CHRNA7_encenicline

> <source_run>
hybrid_B_face_seed1103_ex32

> <source_seed>
1103

> <vina_pose_rank>
18

> <vina_affinity_kcal_mol>
-4.8959999999999999

> <vina_rmsd_to_crystal_angstrom>
8.9426000000000005

> <minimizedAffinity>
-4.90382

> <CNNscore>
0.0970055982

> <CNNaffinity>
3.9982986450

> <CNN_VS>
0.3878573477

> <CNNaffinity_variance>
0.8221659064

$$$$
CHRNA7_encenicline__hybrid_B_face_seed1103_ex32__pose19


 22 25  0  0  0  0  0  0  0  0999 V2000
  150.0210  135.0670   89.8110 O   0  0  0  0  0  0  0  0  0  0  0  0
  150.0650  136.2410   89.6570 C   0  0  0  0  0  0  0  0  0  0  0  0
  149.5710  136.8250   88.4250 N   0  0  0  0  0  0  0  0  0  0  0  0
  149.6020  137.7990   88.2910 H   0  0  0  0  0  0  0  0  0  0  0  0
  150.6430  137.1290   90.7640 C   0  0  0  0  0  0  0  0  0  0  0  0
  151.1980  136.6940   91.9190 C   0  0  0  0  0  0  0  0  0  0  0  0
  151.7000  137.6500   92.8640 C   0  0  0  0  0  0  0  0  0  0  0  0
  152.2880  137.3750   94.0710 C   0  0  0  0  0  0  0  0  0  0  0  0
  152.7280  138.4170   94.8870 C   0  0  0  0  0  0  0  0  0  0  0  0
  152.5680  139.7510   94.4720 C   0  0  0  0  0  0  0  0  0  0  0  0
  151.9690  140.0380   93.2420 C   0  0  0  0  0  0  0  0  0  0  0  0
  151.7700  141.7310   92.7200 Cl  0  0  0  0  0  0  0  0  0  0  0  0
  151.5350  139.0130   92.4360 C   0  0  0  0  0  0  0  0  0  0  0  0
  150.7280  138.8670   90.8130 S   0  0  0  0  0  0  0  0  0  0  0  0
  149.0180  135.9430   87.3720 C   0  0  0  0  0  0  0  0  0  0  0  0
  147.7110  136.5440   86.8170 C   0  0  0  0  0  0  0  0  0  0  0  0
  147.8010  136.7670   85.4400 N   0  0  0  0  0  0  0  0  0  0  0  0
  148.0850  135.5910   84.7810 C   0  0  0  0  0  0  0  0  0  0  0  0
  149.3830  135.0010   85.2480 C   0  0  0  0  0  0  0  0  0  0  0  0
  149.9680  135.8230   86.2700 C   0  0  0  0  0  0  0  0  0  0  0  0
  150.1990  137.1540   85.7150 C   0  0  0  0  0  0  0  0  0  0  0  0
  148.8260  137.7100   85.1770 C   0  0  0  0  0  0  0  0  0  0  0  0
  1  2  2  0
  2  3  1  0
  3 15  1  0
 15 16  1  0
 16 17  1  0
 17 18  1  0
 18 19  1  0
 19 20  1  0
 20 21  1  0
 21 22  1  0
  2  5  1  0
  5  6  2  0
  6  7  1  0
  7  8  2  0
  8  9  1  0
  9 10  2  0
 10 11  1  0
 11 12  1  0
 11 13  2  0
 13 14  1  0
 20 15  1  0
 14  5  1  0
 22 17  1  0
 13  7  1  0
  3  4  1  0
M  END
> <meeko>
{"is_sidechain": false}

> <source_group>
CHRFAM7A at B face

> <source_system>
CHRNA7_encenicline

> <source_run>
hybrid_B_face_seed1103_ex32

> <source_seed>
1103

> <vina_pose_rank>
19

> <vina_affinity_kcal_mol>
-4.8689999999999998

> <vina_rmsd_to_crystal_angstrom>
9.0646000000000004

> <minimizedAffinity>
-4.86041

> <CNNscore>
0.0698949248

> <CNNaffinity>
3.9849433899

> <CNN_VS>
0.2785273194

> <CNNaffinity_variance>
0.5703128576

$$$$
CHRNA7_encenicline__hybrid_B_face_seed1103_ex32__pose20


 22 25  0  0  0  0  0  0  0  0999 V2000
  146.9720  144.0020   93.7020 O   0  0  0  0  0  0  0  0  0  0  0  0
  146.3920  144.0250   94.7340 C   0  0  0  0  0  0  0  0  0  0  0  0
  146.8190  144.9330   95.7810 N   0  0  0  0  0  0  0  0  0  0  0  0
  146.3400  144.9600   96.6400 H   0  0  0  0  0  0  0  0  0  0  0  0
  145.1930  143.0950   94.9510 C   0  0  0  0  0  0  0  0  0  0  0  0
  144.9660  141.9310   94.2980 C   0  0  0  0  0  0  0  0  0  0  0  0
  143.7950  141.1630   94.6110 C   0  0  0  0  0  0  0  0  0  0  0  0
  143.4240  139.9720   94.0460 C   0  0  0  0  0  0  0  0  0  0  0  0
  142.2490  139.3400   94.4560 C   0  0  0  0  0  0  0  0  0  0  0  0
  141.4450  139.9270   95.4480 C   0  0  0  0  0  0  0  0  0  0  0  0
  141.8180  141.1430   96.0290 C   0  0  0  0  0  0  0  0  0  0  0  0
  140.7960  141.8820   97.2890 Cl  0  0  0  0  0  0  0  0  0  0  0  0
  142.9750  141.7670   95.6270 C   0  0  0  0  0  0  0  0  0  0  0  0
  143.8630  143.2950   96.0550 S   0  0  0  0  0  0  0  0  0  0  0  0
  147.9800  145.8210   95.5450 C   0  0  0  0  0  0  0  0  0  0  0  0
  147.7700  146.6290   94.2490 C   0  0  0  0  0  0  0  0  0  0  0  0
  147.8050  148.0030   94.4980 N   0  0  0  0  0  0  0  0  0  0  0  0
  149.0070  148.3560   95.0720 C   0  0  0  0  0  0  0  0  0  0  0  0
  149.2260  147.6370   96.3700 C   0  0  0  0  0  0  0  0  0  0  0  0
  148.1220  146.7630   96.6520 C   0  0  0  0  0  0  0  0  0  0  0  0
  146.9050  147.5680   96.7280 C   0  0  0  0  0  0  0  0  0  0  0  0
  146.7480  148.3560   95.3720 C   0  0  0  0  0  0  0  0  0  0  0  0
  1  2  2  0
  2  3  1  0
  3 15  1  0
 15 16  1  0
 16 17  1  0
 17 18  1  0
 18 19  1  0
 19 20  1  0
 20 21  1  0
 21 22  1  0
  2  5  1  0
  5  6  2  0
  6  7  1  0
  7  8  2  0
  8  9  1  0
  9 10  2  0
 10 11  1  0
 11 12  1  0
 11 13  2  0
 13 14  1  0
 20 15  1  0
 14  5  1  0
 22 17  1  0
 13  7  1  0
  3  4  1  0
M  END
> <meeko>
{"is_sidechain": false}

> <source_group>
CHRFAM7A at B face

> <source_system>
CHRNA7_encenicline

> <source_run>
hybrid_B_face_seed1103_ex32

> <source_seed>
1103

> <vina_pose_rank>
20

> <vina_affinity_kcal_mol>
-4.7830000000000004

> <vina_rmsd_to_crystal_angstrom>
9.8711000000000002

> <minimizedAffinity>
-5.26674

> <CNNscore>
0.0760066137

> <CNNaffinity>
3.2697589397

> <CNN_VS>
0.2485233098

> <CNNaffinity_variance>
1.3067263365

$$$$
