FYN_saracatinib__vina_seed4409_ex32__pose01


 40 45  0  0  0  0  0  0  0  0999 V2000
  -10.0830   15.9920   -7.4400 C   0  0  0  0  0  0  0  0  0  0  0  0
  -11.1870   16.6960   -7.7150 C   0  0  0  0  0  0  0  0  0  0  0  0
  -11.9420   16.4260   -8.7890 C   0  0  0  0  0  0  0  0  0  0  0  0
  -11.6440   15.4240   -9.6630 C   0  0  0  0  0  0  0  0  0  0  0  0
  -10.5280   14.6890   -9.4000 C   0  0  0  0  0  0  0  0  0  0  0  0
   -9.7950   15.0040   -8.3080 C   0  0  0  0  0  0  0  0  0  0  0  0
  -12.4960   15.2610  -10.7160 C   0  0  0  0  0  0  0  0  0  0  0  0
  -13.4980   16.0480  -10.7940 N   0  0  0  0  0  0  0  0  0  0  0  0
  -13.6860   16.9460   -9.9270 C   0  0  0  0  0  0  0  0  0  0  0  0
  -12.9560   17.1730   -8.9280 N   0  0  0  0  0  0  0  0  0  0  0  0
  -13.1620   17.8930   -8.2870 H   0  0  0  0  0  0  0  0  0  0  0  0
  -12.5440   14.4450  -11.7040 N   0  0  0  0  0  0  0  0  0  0  0  0
  -11.6320   13.9330  -11.8400 H   0  0  0  0  0  0  0  0  0  0  0  0
  -13.3950   14.0700  -12.5830 C   0  0  0  0  0  0  0  0  0  0  0  0
  -14.1280   12.9380  -12.3820 C   0  0  0  0  0  0  0  0  0  0  0  0
  -13.9920   11.9300  -10.9690 Cl  0  0  0  0  0  0  0  0  0  0  0  0
  -15.0410   12.5250  -13.2820 C   0  0  0  0  0  0  0  0  0  0  0  0
  -15.2630   13.2000  -14.4180 C   0  0  0  0  0  0  0  0  0  0  0  0
  -14.5480   14.3070  -14.6300 C   0  0  0  0  0  0  0  0  0  0  0  0
  -13.6390   14.7270  -13.7400 C   0  0  0  0  0  0  0  0  0  0  0  0
  -13.1080   15.7620  -14.1480 O   0  0  0  0  0  0  0  0  0  0  0  0
  -13.6260   16.0610  -15.4430 C   0  0  0  0  0  0  0  0  0  0  0  0
  -14.6110   15.0480  -15.6100 O   0  0  0  0  0  0  0  0  0  0  0  0
   -9.2970   16.2430   -6.3420 O   0  0  0  0  0  0  0  0  0  0  0  0
   -7.9100   16.1050   -6.5360 C   0  0  0  0  0  0  0  0  0  0  0  0
   -7.1810   15.6490   -5.2610 C   0  0  0  0  0  0  0  0  0  0  0  0
   -9.2580   13.6860   -0.3940 C   0  0  0  0  0  0  0  0  0  0  0  0
   -8.4260   14.0270   -1.5350 N   0  0  0  0  0  0  0  0  0  0  0  0
   -9.0240   13.5220   -2.7590 C   0  0  0  0  0  0  0  0  0  0  0  0
   -8.2050   13.9170   -3.9970 C   0  0  0  0  0  0  0  0  0  0  0  0
   -8.0210   15.3610   -4.1040 N   0  0  0  0  0  0  0  0  0  0  0  0
   -7.4120   15.8340   -2.8700 C   0  0  0  0  0  0  0  0  0  0  0  0
   -8.2560   15.4650   -1.6350 C   0  0  0  0  0  0  0  0  0  0  0  0
  -10.1220   13.6600  -10.2300 O   0  0  0  0  0  0  0  0  0  0  0  0
  -10.0310   12.3230   -9.8020 C   0  0  0  0  0  0  0  0  0  0  0  0
  -11.1700   11.9020   -8.8730 C   0  0  0  0  0  0  0  0  0  0  0  0
  -11.2330   10.3840   -8.7330 C   0  0  0  0  0  0  0  0  0  0  0  0
  -11.3630    9.7700   -9.9920 O   0  0  0  0  0  0  0  0  0  0  0  0
  -10.2110    9.9880  -10.7610 C   0  0  0  0  0  0  0  0  0  0  0  0
  -10.0790   11.4730  -11.0820 C   0  0  0  0  0  0  0  0  0  0  0  0
 27 28  1  0
 28 29  1  0
 29 30  1  0
 30 31  1  0
 31 26  1  0
 26 25  1  0
 25 24  1  0
 24  1  1  0
  1  2  2  0
  2  3  1  0
  3  4  2  0
  4  5  1  0
  5 34  1  0
 34 35  1  0
 35 36  1  0
 36 37  1  0
 37 38  1  0
 38 39  1  0
 39 40  1  0
  5  6  2  0
  4  7  1  0
  7 12  1  0
 12 14  1  0
 14 15  2  0
 15 16  1  0
 15 17  1  0
 17 18  2  0
 18 19  1  0
 19 20  2  0
 20 21  1  0
 21 22  1  0
 22 23  1  0
  7  8  1  0
  8  9  2  0
  9 10  1  0
 31 32  1  0
 32 33  1  0
 33 28  1  0
  6  1  1  0
 20 14  1  0
 10  3  1  0
 40 35  1  0
 23 19  1  0
 12 13  1  0
 10 11  1  0
M  END
> <meeko>
{"is_sidechain": false}

> <source_group>
FYN canonical

> <source_system>
FYN_saracatinib

> <source_run>
vina_seed4409_ex32

> <source_seed>
4409

> <vina_pose_rank>
1

> <vina_affinity_kcal_mol>
-9.1820000000000004

> <vina_rmsd_to_crystal_angstrom>
1.7535000000000001

> <minimizedAffinity>
-9.17936

> <CNNscore>
0.6300535202

> <CNNaffinity>
7.5684237480

> <CNN_VS>
4.7685122490

> <CNNaffinity_variance>
0.1197887063

$$$$
FYN_saracatinib__vina_seed4409_ex32__pose02


 40 45  0  0  0  0  0  0  0  0999 V2000
   -9.9930   15.9860   -7.3280 C   0  0  0  0  0  0  0  0  0  0  0  0
  -11.1120   16.6670   -7.6030 C   0  0  0  0  0  0  0  0  0  0  0  0
  -11.8460   16.3980   -8.6920 C   0  0  0  0  0  0  0  0  0  0  0  0
  -11.5110   15.4210   -9.5810 C   0  0  0  0  0  0  0  0  0  0  0  0
  -10.3790   14.7100   -9.3180 C   0  0  0  0  0  0  0  0  0  0  0  0
   -9.6680   15.0230   -8.2100 C   0  0  0  0  0  0  0  0  0  0  0  0
  -12.3440   15.2570  -10.6490 C   0  0  0  0  0  0  0  0  0  0  0  0
  -13.3660   16.0190  -10.7240 N   0  0  0  0  0  0  0  0  0  0  0  0
  -13.5880   16.8940   -9.8430 C   0  0  0  0  0  0  0  0  0  0  0  0
  -12.8780   17.1210   -8.8300 N   0  0  0  0  0  0  0  0  0  0  0  0
  -13.1100   17.8230   -8.1780 H   0  0  0  0  0  0  0  0  0  0  0  0
  -12.3590   14.4590  -11.6520 N   0  0  0  0  0  0  0  0  0  0  0  0
  -11.3960   14.3100  -12.0530 H   0  0  0  0  0  0  0  0  0  0  0  0
  -13.2210   13.7830  -12.3140 C   0  0  0  0  0  0  0  0  0  0  0  0
  -13.6640   14.2410  -13.5190 C   0  0  0  0  0  0  0  0  0  0  0  0
  -13.1260   15.7250  -14.2540 Cl  0  0  0  0  0  0  0  0  0  0  0  0
  -14.5610   13.5460  -14.2470 C   0  0  0  0  0  0  0  0  0  0  0  0
  -15.0640   12.3820  -13.8150 C   0  0  0  0  0  0  0  0  0  0  0  0
  -14.6420   11.9250  -12.6330 C   0  0  0  0  0  0  0  0  0  0  0  0
  -13.7500   12.6080  -11.9050 C   0  0  0  0  0  0  0  0  0  0  0  0
  -13.5140   11.9970  -10.8600 O   0  0  0  0  0  0  0  0  0  0  0  0
  -14.3430   10.8360  -10.8140 C   0  0  0  0  0  0  0  0  0  0  0  0
  -14.9930   10.8850  -12.0780 O   0  0  0  0  0  0  0  0  0  0  0  0
   -9.2280   16.2370   -6.2150 O   0  0  0  0  0  0  0  0  0  0  0  0
   -7.8550   15.9560   -6.3390 C   0  0  0  0  0  0  0  0  0  0  0  0
   -7.3500   14.9960   -5.2480 C   0  0  0  0  0  0  0  0  0  0  0  0
   -9.3880   13.7320   -0.1390 C   0  0  0  0  0  0  0  0  0  0  0  0
   -8.5930   13.8480   -1.3490 N   0  0  0  0  0  0  0  0  0  0  0  0
   -9.3570   13.3900   -2.4960 C   0  0  0  0  0  0  0  0  0  0  0  0
   -8.5720   13.5560   -3.8060 C   0  0  0  0  0  0  0  0  0  0  0  0
   -8.1430   14.9340   -4.0250 N   0  0  0  0  0  0  0  0  0  0  0  0
   -7.3720   15.3600   -2.8660 C   0  0  0  0  0  0  0  0  0  0  0  0
   -8.1770   15.2230   -1.5600 C   0  0  0  0  0  0  0  0  0  0  0  0
   -9.9360   13.7090  -10.1620 O   0  0  0  0  0  0  0  0  0  0  0  0
   -9.8160   12.3670   -9.7580 C   0  0  0  0  0  0  0  0  0  0  0  0
  -10.9300   11.9120   -8.8150 C   0  0  0  0  0  0  0  0  0  0  0  0
  -10.9680   10.3920   -8.7000 C   0  0  0  0  0  0  0  0  0  0  0  0
  -11.1130    9.7970   -9.9670 O   0  0  0  0  0  0  0  0  0  0  0  0
   -9.9800   10.0460  -10.7550 C   0  0  0  0  0  0  0  0  0  0  0  0
   -9.8770   11.5380  -11.0520 C   0  0  0  0  0  0  0  0  0  0  0  0
 27 28  1  0
 28 29  1  0
 29 30  1  0
 30 31  1  0
 31 26  1  0
 26 25  1  0
 25 24  1  0
 24  1  1  0
  1  2  2  0
  2  3  1  0
  3  4  2  0
  4  5  1  0
  5 34  1  0
 34 35  1  0
 35 36  1  0
 36 37  1  0
 37 38  1  0
 38 39  1  0
 39 40  1  0
  5  6  2  0
  4  7  1  0
  7 12  1  0
 12 14  1  0
 14 15  2  0
 15 16  1  0
 15 17  1  0
 17 18  2  0
 18 19  1  0
 19 20  2  0
 20 21  1  0
 21 22  1  0
 22 23  1  0
  7  8  1  0
  8  9  2  0
  9 10  1  0
 31 32  1  0
 32 33  1  0
 33 28  1  0
  6  1  1  0
 20 14  1  0
 10  3  1  0
 40 35  1  0
 23 19  1  0
 12 13  1  0
 10 11  1  0
M  END
> <meeko>
{"is_sidechain": false}

> <source_group>
FYN canonical

> <source_system>
FYN_saracatinib

> <source_run>
vina_seed4409_ex32

> <source_seed>
4409

> <vina_pose_rank>
2

> <vina_affinity_kcal_mol>
-9.0800000000000001

> <vina_rmsd_to_crystal_angstrom>
2.7854000000000001

> <minimizedAffinity>
-8.94432

> <CNNscore>
0.7334871888

> <CNNaffinity>
7.7044758797

> <CNN_VS>
5.6511344910

> <CNNaffinity_variance>
0.1368361861

$$$$
FYN_saracatinib__vina_seed4409_ex32__pose03


 40 45  0  0  0  0  0  0  0  0999 V2000
  -10.3210   15.7600   -7.7210 C   0  0  0  0  0  0  0  0  0  0  0  0
  -11.3880   16.5200   -7.9940 C   0  0  0  0  0  0  0  0  0  0  0  0
  -12.1390   16.3090   -9.0850 C   0  0  0  0  0  0  0  0  0  0  0  0
  -11.8730   15.3150   -9.9780 C   0  0  0  0  0  0  0  0  0  0  0  0
  -10.7950   14.5240   -9.7180 C   0  0  0  0  0  0  0  0  0  0  0  0
  -10.0650   14.7810   -8.6080 C   0  0  0  0  0  0  0  0  0  0  0  0
  -12.7160   15.2150  -11.0460 C   0  0  0  0  0  0  0  0  0  0  0  0
  -13.6800   16.0480  -11.1180 N   0  0  0  0  0  0  0  0  0  0  0  0
  -13.8410   16.9330  -10.2330 C   0  0  0  0  0  0  0  0  0  0  0  0
  -13.1160   17.1040   -9.2190 N   0  0  0  0  0  0  0  0  0  0  0  0
  -13.2990   17.8170   -8.5640 H   0  0  0  0  0  0  0  0  0  0  0  0
  -12.7860   14.4250  -12.0530 N   0  0  0  0  0  0  0  0  0  0  0  0
  -11.8840   13.9020  -12.2110 H   0  0  0  0  0  0  0  0  0  0  0  0
  -13.6500   14.0860  -12.9350 C   0  0  0  0  0  0  0  0  0  0  0  0
  -14.4260   12.9820  -12.7380 C   0  0  0  0  0  0  0  0  0  0  0  0
  -14.3290   11.9640  -11.3290 Cl  0  0  0  0  0  0  0  0  0  0  0  0
  -15.3540   12.6080  -13.6400 C   0  0  0  0  0  0  0  0  0  0  0  0
  -15.5510   13.2960  -14.7730 C   0  0  0  0  0  0  0  0  0  0  0  0
  -14.7930   14.3760  -14.9810 C   0  0  0  0  0  0  0  0  0  0  0  0
  -13.8700   14.7570  -14.0890 C   0  0  0  0  0  0  0  0  0  0  0  0
  -13.2990   15.7730  -14.4920 O   0  0  0  0  0  0  0  0  0  0  0  0
  -13.8050   16.0970  -15.7860 C   0  0  0  0  0  0  0  0  0  0  0  0
  -14.8280   15.1230  -15.9570 O   0  0  0  0  0  0  0  0  0  0  0  0
   -9.5410   15.9500   -6.6070 O   0  0  0  0  0  0  0  0  0  0  0  0
   -8.3730   15.1670   -6.5350 C   0  0  0  0  0  0  0  0  0  0  0  0
   -8.3940   14.1890   -5.3480 C   0  0  0  0  0  0  0  0  0  0  0  0
   -7.2750    9.2890   -7.9170 C   0  0  0  0  0  0  0  0  0  0  0  0
   -7.5670   10.6750   -7.5910 N   0  0  0  0  0  0  0  0  0  0  0  0
   -8.8160   10.7650   -6.8560 C   0  0  0  0  0  0  0  0  0  0  0  0
   -9.1280   12.2090   -6.4370 C   0  0  0  0  0  0  0  0  0  0  0  0
   -8.0540   12.8030   -5.6470 N   0  0  0  0  0  0  0  0  0  0  0  0
   -6.8200   12.7080   -6.4140 C   0  0  0  0  0  0  0  0  0  0  0  0
   -6.4950   11.2520   -6.8010 C   0  0  0  0  0  0  0  0  0  0  0  0
  -10.4230   13.4980  -10.5660 O   0  0  0  0  0  0  0  0  0  0  0  0
  -10.1180   12.2020  -10.1110 C   0  0  0  0  0  0  0  0  0  0  0  0
  -11.3470   11.4010   -9.6820 C   0  0  0  0  0  0  0  0  0  0  0  0
  -11.0190    9.9180   -9.5490 C   0  0  0  0  0  0  0  0  0  0  0  0
  -10.4870    9.4120  -10.7490 O   0  0  0  0  0  0  0  0  0  0  0  0
   -9.2480   10.0080  -11.0220 C   0  0  0  0  0  0  0  0  0  0  0  0
   -9.4390   11.4960  -11.2960 C   0  0  0  0  0  0  0  0  0  0  0  0
 27 28  1  0
 28 29  1  0
 29 30  1  0
 30 31  1  0
 31 26  1  0
 26 25  1  0
 25 24  1  0
 24  1  1  0
  1  2  2  0
  2  3  1  0
  3  4  2  0
  4  5  1  0
  5 34  1  0
 34 35  1  0
 35 36  1  0
 36 37  1  0
 37 38  1  0
 38 39  1  0
 39 40  1  0
  5  6  2  0
  4  7  1  0
  7 12  1  0
 12 14  1  0
 14 15  2  0
 15 16  1  0
 15 17  1  0
 17 18  2  0
 18 19  1  0
 19 20  2  0
 20 21  1  0
 21 22  1  0
 22 23  1  0
  7  8  1  0
  8  9  2  0
  9 10  1  0
 31 32  1  0
 32 33  1  0
 33 28  1  0
  6  1  1  0
 20 14  1  0
 10  3  1  0
 40 35  1  0
 23 19  1  0
 12 13  1  0
 10 11  1  0
M  END
> <meeko>
{"is_sidechain": false}

> <source_group>
FYN canonical

> <source_system>
FYN_saracatinib

> <source_run>
vina_seed4409_ex32

> <source_seed>
4409

> <vina_pose_rank>
3

> <vina_affinity_kcal_mol>
-8.9359999999999999

> <vina_rmsd_to_crystal_angstrom>
3.25

> <minimizedAffinity>
-8.67651

> <CNNscore>
0.4391416609

> <CNNaffinity>
7.4542751312

> <CNN_VS>
3.2734827995

> <CNNaffinity_variance>
0.1984293312

$$$$
FYN_saracatinib__vina_seed4409_ex32__pose04


 40 45  0  0  0  0  0  0  0  0999 V2000
  -10.7120   13.2550   -7.6450 C   0  0  0  0  0  0  0  0  0  0  0  0
  -11.2020   14.4820   -7.8600 C   0  0  0  0  0  0  0  0  0  0  0  0
  -11.7520   14.8220   -9.0350 C   0  0  0  0  0  0  0  0  0  0  0  0
  -11.8530   13.9510  -10.0770 C   0  0  0  0  0  0  0  0  0  0  0  0
  -11.3670   12.6940   -9.8800 C   0  0  0  0  0  0  0  0  0  0  0  0
  -10.8150   12.4010   -8.6800 C   0  0  0  0  0  0  0  0  0  0  0  0
  -12.4310   14.4300  -11.2170 C   0  0  0  0  0  0  0  0  0  0  0  0
  -12.8330   15.6410  -11.2110 N   0  0  0  0  0  0  0  0  0  0  0  0
  -12.6940   16.3660  -10.1880 C   0  0  0  0  0  0  0  0  0  0  0  0
  -12.1730   16.0150   -9.0990 N   0  0  0  0  0  0  0  0  0  0  0  0
  -12.0960   16.6350   -8.3360 H   0  0  0  0  0  0  0  0  0  0  0  0
  -12.6990   13.9180  -12.3610 N   0  0  0  0  0  0  0  0  0  0  0  0
  -11.8720   13.4100  -12.7720 H   0  0  0  0  0  0  0  0  0  0  0  0
  -13.6980   13.8490  -13.1590 C   0  0  0  0  0  0  0  0  0  0  0  0
  -14.6540   12.8960  -12.9690 C   0  0  0  0  0  0  0  0  0  0  0  0
  -14.6220   11.7280  -11.6790 Cl  0  0  0  0  0  0  0  0  0  0  0  0
  -15.7250   12.8060  -13.7830 C   0  0  0  0  0  0  0  0  0  0  0  0
  -15.8930   13.6400  -14.8180 C   0  0  0  0  0  0  0  0  0  0  0  0
  -14.9590   14.5740  -15.0180 C   0  0  0  0  0  0  0  0  0  0  0  0
  -13.8930   14.6730  -14.2130 C   0  0  0  0  0  0  0  0  0  0  0  0
  -13.1750   15.6010  -14.5900 O   0  0  0  0  0  0  0  0  0  0  0  0
  -13.7330   16.1570  -15.7790 C   0  0  0  0  0  0  0  0  0  0  0  0
  -14.9420   15.4190  -15.9130 O   0  0  0  0  0  0  0  0  0  0  0  0
  -10.1510   12.8800   -6.4490 O   0  0  0  0  0  0  0  0  0  0  0  0
   -8.8340   12.3880   -6.5170 C   0  0  0  0  0  0  0  0  0  0  0  0
   -7.8130   13.3580   -5.8970 C   0  0  0  0  0  0  0  0  0  0  0  0
   -8.2810   18.7370   -4.2520 C   0  0  0  0  0  0  0  0  0  0  0  0
   -7.8190   17.3980   -4.5780 N   0  0  0  0  0  0  0  0  0  0  0  0
   -8.5770   16.4110   -3.8290 C   0  0  0  0  0  0  0  0  0  0  0  0
   -8.1610   14.9780   -4.1940 C   0  0  0  0  0  0  0  0  0  0  0  0
   -8.2890   14.7090   -5.6230 N   0  0  0  0  0  0  0  0  0  0  0  0
   -7.5120   15.7070   -6.3440 C   0  0  0  0  0  0  0  0  0  0  0  0
   -7.9570   17.1410   -6.0000 C   0  0  0  0  0  0  0  0  0  0  0  0
  -11.4010   11.7360  -10.8760 O   0  0  0  0  0  0  0  0  0  0  0  0
  -10.8630   10.4460  -10.7140 C   0  0  0  0  0  0  0  0  0  0  0  0
  -11.9050    9.3320  -10.8270 C   0  0  0  0  0  0  0  0  0  0  0  0
  -11.2390    7.9720  -11.0090 C   0  0  0  0  0  0  0  0  0  0  0  0
  -10.3890    7.9760  -12.1300 O   0  0  0  0  0  0  0  0  0  0  0  0
   -9.3140    8.8510  -11.9230 C   0  0  0  0  0  0  0  0  0  0  0  0
   -9.8250   10.2850  -11.8370 C   0  0  0  0  0  0  0  0  0  0  0  0
 27 28  1  0
 28 29  1  0
 29 30  1  0
 30 31  1  0
 31 26  1  0
 26 25  1  0
 25 24  1  0
 24  1  1  0
  1  2  2  0
  2  3  1  0
  3  4  2  0
  4  5  1  0
  5 34  1  0
 34 35  1  0
 35 36  1  0
 36 37  1  0
 37 38  1  0
 38 39  1  0
 39 40  1  0
  5  6  2  0
  4  7  1  0
  7 12  1  0
 12 14  1  0
 14 15  2  0
 15 16  1  0
 15 17  1  0
 17 18  2  0
 18 19  1  0
 19 20  2  0
 20 21  1  0
 21 22  1  0
 22 23  1  0
  7  8  1  0
  8  9  2  0
  9 10  1  0
 31 32  1  0
 32 33  1  0
 33 28  1  0
  6  1  1  0
 20 14  1  0
 10  3  1  0
 40 35  1  0
 23 19  1  0
 12 13  1  0
 10 11  1  0
M  END
> <meeko>
{"is_sidechain": false}

> <source_group>
FYN canonical

> <source_system>
FYN_saracatinib

> <source_run>
vina_seed4409_ex32

> <source_seed>
4409

> <vina_pose_rank>
4

> <vina_affinity_kcal_mol>
-8.8819999999999997

> <vina_rmsd_to_crystal_angstrom>
2.6888999999999998

> <minimizedAffinity>
-8.78597

> <CNNscore>
0.2967918813

> <CNNaffinity>
7.2736053467

> <CNN_VS>
2.1587469578

> <CNNaffinity_variance>
0.1665147245

$$$$
FYN_saracatinib__vina_seed4409_ex32__pose05


 40 45  0  0  0  0  0  0  0  0999 V2000
  -11.7380   15.9710   -8.9080 C   0  0  0  0  0  0  0  0  0  0  0  0
  -12.7910   16.7460   -9.1940 C   0  0  0  0  0  0  0  0  0  0  0  0
  -13.6030   16.4720  -10.2250 C   0  0  0  0  0  0  0  0  0  0  0  0
  -13.4190   15.3960  -11.0400 C   0  0  0  0  0  0  0  0  0  0  0  0
  -12.3580   14.5880  -10.7630 C   0  0  0  0  0  0  0  0  0  0  0  0
  -11.5630   14.9090   -9.7170 C   0  0  0  0  0  0  0  0  0  0  0  0
  -14.3180   15.2390  -12.0540 C   0  0  0  0  0  0  0  0  0  0  0  0
  -15.2550   16.1010  -12.1520 N   0  0  0  0  0  0  0  0  0  0  0  0
  -15.3390   17.0640  -11.3410 C   0  0  0  0  0  0  0  0  0  0  0  0
  -14.5570   17.2920  -10.3810 N   0  0  0  0  0  0  0  0  0  0  0  0
  -14.6810   18.0650   -9.7840 H   0  0  0  0  0  0  0  0  0  0  0  0
  -14.4680   14.3690  -12.9830 N   0  0  0  0  0  0  0  0  0  0  0  0
  -14.2750   13.3900  -12.6450 H   0  0  0  0  0  0  0  0  0  0  0  0
  -14.7900   14.3500  -14.2220 C   0  0  0  0  0  0  0  0  0  0  0  0
  -14.0060   14.9870  -15.1380 C   0  0  0  0  0  0  0  0  0  0  0  0
  -12.5490   15.8510  -14.7380 Cl  0  0  0  0  0  0  0  0  0  0  0  0
  -14.3100   14.9740  -16.4510 C   0  0  0  0  0  0  0  0  0  0  0  0
  -15.3990   14.3450  -16.9140 C   0  0  0  0  0  0  0  0  0  0  0  0
  -16.1780   13.7220  -16.0250 C   0  0  0  0  0  0  0  0  0  0  0  0
  -15.8830   13.7280  -14.7190 C   0  0  0  0  0  0  0  0  0  0  0  0
  -16.7380   13.0930  -14.0990 O   0  0  0  0  0  0  0  0  0  0  0  0
  -17.7430   12.6650  -15.0160 C   0  0  0  0  0  0  0  0  0  0  0  0
  -17.2130   13.1000  -16.2630 O   0  0  0  0  0  0  0  0  0  0  0  0
  -10.8960   16.2240   -7.8530 O   0  0  0  0  0  0  0  0  0  0  0  0
   -9.8120   15.3380   -7.7080 C   0  0  0  0  0  0  0  0  0  0  0  0
   -8.7150   15.8990   -6.7880 C   0  0  0  0  0  0  0  0  0  0  0  0
   -8.3080   15.9820   -1.1590 C   0  0  0  0  0  0  0  0  0  0  0  0
   -8.0680   16.0540   -2.5900 N   0  0  0  0  0  0  0  0  0  0  0  0
   -8.3580   14.7740   -3.2120 C   0  0  0  0  0  0  0  0  0  0  0  0
   -8.1770   14.8280   -4.7360 C   0  0  0  0  0  0  0  0  0  0  0  0
   -8.9930   15.8670   -5.3560 N   0  0  0  0  0  0  0  0  0  0  0  0
   -8.6710   17.1370   -4.7200 C   0  0  0  0  0  0  0  0  0  0  0  0
   -8.8890   17.0860   -3.1960 C   0  0  0  0  0  0  0  0  0  0  0  0
  -12.0670   13.4790  -11.5360 O   0  0  0  0  0  0  0  0  0  0  0  0
  -12.1310   12.1640  -11.0400 C   0  0  0  0  0  0  0  0  0  0  0  0
  -13.5570   11.6260  -10.9210 C   0  0  0  0  0  0  0  0  0  0  0  0
  -13.5610   10.1120  -10.7350 C   0  0  0  0  0  0  0  0  0  0  0  0
  -12.8730    9.4770  -11.7850 O   0  0  0  0  0  0  0  0  0  0  0  0
  -11.5130    9.8160  -11.7530 C   0  0  0  0  0  0  0  0  0  0  0  0
  -11.3460   11.3040  -12.0430 C   0  0  0  0  0  0  0  0  0  0  0  0
 27 28  1  0
 28 29  1  0
 29 30  1  0
 30 31  1  0
 31 26  1  0
 26 25  1  0
 25 24  1  0
 24  1  1  0
  1  2  2  0
  2  3  1  0
  3  4  2  0
  4  5  1  0
  5 34  1  0
 34 35  1  0
 35 36  1  0
 36 37  1  0
 37 38  1  0
 38 39  1  0
 39 40  1  0
  5  6  2  0
  4  7  1  0
  7 12  1  0
 12 14  1  0
 14 15  2  0
 15 16  1  0
 15 17  1  0
 17 18  2  0
 18 19  1  0
 19 20  2  0
 20 21  1  0
 21 22  1  0
 22 23  1  0
  7  8  1  0
  8  9  2  0
  9 10  1  0
 31 32  1  0
 32 33  1  0
 33 28  1  0
  6  1  1  0
 20 14  1  0
 10  3  1  0
 40 35  1  0
 23 19  1  0
 12 13  1  0
 10 11  1  0
M  END
> <meeko>
{"is_sidechain": false}

> <source_group>
FYN canonical

> <source_system>
FYN_saracatinib

> <source_run>
vina_seed4409_ex32

> <source_seed>
4409

> <vina_pose_rank>
5

> <vina_affinity_kcal_mol>
-8.8710000000000004

> <vina_rmsd_to_crystal_angstrom>
2.7759

> <minimizedAffinity>
-8.96318

> <CNNscore>
0.7913069129

> <CNNaffinity>
7.8444790840

> <CNN_VS>
6.2073903084

> <CNNaffinity_variance>
0.2171997279

$$$$
FYN_saracatinib__vina_seed4409_ex32__pose06


 40 45  0  0  0  0  0  0  0  0999 V2000
   -9.9420   15.6070   -7.4040 C   0  0  0  0  0  0  0  0  0  0  0  0
  -10.9970   16.3980   -7.6300 C   0  0  0  0  0  0  0  0  0  0  0  0
  -11.7670   16.2470   -8.7180 C   0  0  0  0  0  0  0  0  0  0  0  0
  -11.5350   15.2850   -9.6540 C   0  0  0  0  0  0  0  0  0  0  0  0
  -10.4700   14.4620   -9.4410 C   0  0  0  0  0  0  0  0  0  0  0  0
   -9.7190   14.6580   -8.3330 C   0  0  0  0  0  0  0  0  0  0  0  0
  -12.3940   15.2460  -10.7130 C   0  0  0  0  0  0  0  0  0  0  0  0
  -13.3420   16.1020  -10.7370 N   0  0  0  0  0  0  0  0  0  0  0  0
  -13.4710   16.9530   -9.8150 C   0  0  0  0  0  0  0  0  0  0  0  0
  -12.7290   17.0680   -8.8050 N   0  0  0  0  0  0  0  0  0  0  0  0
  -12.8870   17.7570   -8.1200 H   0  0  0  0  0  0  0  0  0  0  0  0
  -12.4950   14.4990  -11.7500 N   0  0  0  0  0  0  0  0  0  0  0  0
  -11.5770   14.0500  -12.0060 H   0  0  0  0  0  0  0  0  0  0  0  0
  -13.4060   14.1390  -12.5740 C   0  0  0  0  0  0  0  0  0  0  0  0
  -14.1530   13.0270  -12.3190 C   0  0  0  0  0  0  0  0  0  0  0  0
  -13.9580   12.0260  -10.9080 Cl  0  0  0  0  0  0  0  0  0  0  0  0
  -15.1280   12.6300  -13.1600 C   0  0  0  0  0  0  0  0  0  0  0  0
  -15.4010   13.3020  -14.2870 C   0  0  0  0  0  0  0  0  0  0  0  0
  -14.6730   14.3900  -14.5500 C   0  0  0  0  0  0  0  0  0  0  0  0
  -13.7030   14.7930  -13.7200 C   0  0  0  0  0  0  0  0  0  0  0  0
  -13.1720   15.8120  -14.1670 O   0  0  0  0  0  0  0  0  0  0  0  0
  -13.7590   16.1140  -15.4320 C   0  0  0  0  0  0  0  0  0  0  0  0
  -14.7770   15.1250  -15.5310 O   0  0  0  0  0  0  0  0  0  0  0  0
   -9.1430   15.7350   -6.2950 O   0  0  0  0  0  0  0  0  0  0  0  0
   -8.6830   17.0360   -6.0180 C   0  0  0  0  0  0  0  0  0  0  0  0
   -7.5910   17.0550   -4.9350 C   0  0  0  0  0  0  0  0  0  0  0  0
   -6.9680   22.6060   -4.1250 C   0  0  0  0  0  0  0  0  0  0  0  0
   -7.4080   21.2820   -4.5300 N   0  0  0  0  0  0  0  0  0  0  0  0
   -6.3430   20.5940   -5.2380 C   0  0  0  0  0  0  0  0  0  0  0  0
   -6.7480   19.1650   -5.6280 C   0  0  0  0  0  0  0  0  0  0  0  0
   -7.1590   18.3700   -4.4750 N   0  0  0  0  0  0  0  0  0  0  0  0
   -8.2330   19.0790   -3.7940 C   0  0  0  0  0  0  0  0  0  0  0  0
   -7.8080   20.4990   -3.3750 C   0  0  0  0  0  0  0  0  0  0  0  0
  -10.1320   13.4640  -10.3360 O   0  0  0  0  0  0  0  0  0  0  0  0
  -10.0100   12.1130   -9.9630 C   0  0  0  0  0  0  0  0  0  0  0  0
  -11.0070   11.6850   -8.8840 C   0  0  0  0  0  0  0  0  0  0  0  0
  -11.0840   10.1660   -8.7780 C   0  0  0  0  0  0  0  0  0  0  0  0
  -11.4160    9.5930  -10.0190 O   0  0  0  0  0  0  0  0  0  0  0  0
  -10.3880    9.8120  -10.9470 C   0  0  0  0  0  0  0  0  0  0  0  0
  -10.2700   11.3040  -11.2440 C   0  0  0  0  0  0  0  0  0  0  0  0
 27 28  1  0
 28 29  1  0
 29 30  1  0
 30 31  1  0
 31 26  1  0
 26 25  1  0
 25 24  1  0
 24  1  1  0
  1  2  2  0
  2  3  1  0
  3  4  2  0
  4  5  1  0
  5 34  1  0
 34 35  1  0
 35 36  1  0
 36 37  1  0
 37 38  1  0
 38 39  1  0
 39 40  1  0
  5  6  2  0
  4  7  1  0
  7 12  1  0
 12 14  1  0
 14 15  2  0
 15 16  1  0
 15 17  1  0
 17 18  2  0
 18 19  1  0
 19 20  2  0
 20 21  1  0
 21 22  1  0
 22 23  1  0
  7  8  1  0
  8  9  2  0
  9 10  1  0
 31 32  1  0
 32 33  1  0
 33 28  1  0
  6  1  1  0
 20 14  1  0
 10  3  1  0
 40 35  1  0
 23 19  1  0
 12 13  1  0
 10 11  1  0
M  END
> <meeko>
{"is_sidechain": false}

> <source_group>
FYN canonical

> <source_system>
FYN_saracatinib

> <source_run>
vina_seed4409_ex32

> <source_seed>
4409

> <vina_pose_rank>
6

> <vina_affinity_kcal_mol>
-8.7970000000000006

> <vina_rmsd_to_crystal_angstrom>
2.1911999999999998

> <minimizedAffinity>
-8.91550

> <CNNscore>
0.6052283049

> <CNNaffinity>
7.3904490471

> <CNN_VS>
4.4729089737

> <CNNaffinity_variance>
0.1770893186

$$$$
FYN_saracatinib__vina_seed4409_ex32__pose07


 40 45  0  0  0  0  0  0  0  0999 V2000
  -10.7150   13.2970   -7.6130 C   0  0  0  0  0  0  0  0  0  0  0  0
  -11.2450   14.5100   -7.8030 C   0  0  0  0  0  0  0  0  0  0  0  0
  -11.8020   14.8560   -8.9730 C   0  0  0  0  0  0  0  0  0  0  0  0
  -11.8700   14.0050  -10.0350 C   0  0  0  0  0  0  0  0  0  0  0  0
  -11.3420   12.7620   -9.8620 C   0  0  0  0  0  0  0  0  0  0  0  0
  -10.7850   12.4620   -8.6670 C   0  0  0  0  0  0  0  0  0  0  0  0
  -12.4590   14.4890  -11.1660 C   0  0  0  0  0  0  0  0  0  0  0  0
  -12.9020   15.6860  -11.1370 N   0  0  0  0  0  0  0  0  0  0  0  0
  -12.7920   16.3930  -10.0980 C   0  0  0  0  0  0  0  0  0  0  0  0
  -12.2630   16.0360   -9.0140 N   0  0  0  0  0  0  0  0  0  0  0  0
  -12.2100   16.6410   -8.2380 H   0  0  0  0  0  0  0  0  0  0  0  0
  -12.7050   13.9930  -12.3230 N   0  0  0  0  0  0  0  0  0  0  0  0
  -11.8600   13.5220  -12.7400 H   0  0  0  0  0  0  0  0  0  0  0  0
  -13.6980   13.9070  -13.1260 C   0  0  0  0  0  0  0  0  0  0  0  0
  -14.6510   12.9520  -12.9290 C   0  0  0  0  0  0  0  0  0  0  0  0
  -14.6220   11.8040  -11.6220 Cl  0  0  0  0  0  0  0  0  0  0  0  0
  -15.7160   12.8450  -13.7490 C   0  0  0  0  0  0  0  0  0  0  0  0
  -15.8800   13.6630  -14.7970 C   0  0  0  0  0  0  0  0  0  0  0  0
  -14.9500   14.5990  -15.0040 C   0  0  0  0  0  0  0  0  0  0  0  0
  -13.8900   14.7150  -14.1940 C   0  0  0  0  0  0  0  0  0  0  0  0
  -13.1740   15.6410  -14.5790 O   0  0  0  0  0  0  0  0  0  0  0  0
  -13.7270   16.1760  -15.7800 C   0  0  0  0  0  0  0  0  0  0  0  0
  -14.9320   15.4300  -15.9110 O   0  0  0  0  0  0  0  0  0  0  0  0
  -10.1460   12.9150   -6.4230 O   0  0  0  0  0  0  0  0  0  0  0  0
   -8.7730   12.6080   -6.4700 C   0  0  0  0  0  0  0  0  0  0  0  0
   -7.8880   13.8630   -6.3890 C   0  0  0  0  0  0  0  0  0  0  0  0
   -8.2050   15.5080   -0.9990 C   0  0  0  0  0  0  0  0  0  0  0  0
   -8.4590   14.9750   -2.3270 N   0  0  0  0  0  0  0  0  0  0  0  0
   -8.2900   16.0160   -3.3260 C   0  0  0  0  0  0  0  0  0  0  0  0
   -8.4870   15.4760   -4.7490 C   0  0  0  0  0  0  0  0  0  0  0  0
   -7.5930   14.3620   -5.0500 N   0  0  0  0  0  0  0  0  0  0  0  0
   -7.7930   13.3330   -4.0400 C   0  0  0  0  0  0  0  0  0  0  0  0
   -7.5600   13.8730   -2.6160 C   0  0  0  0  0  0  0  0  0  0  0  0
  -11.3390   11.8250  -10.8790 O   0  0  0  0  0  0  0  0  0  0  0  0
  -10.8190   10.5270  -10.7210 C   0  0  0  0  0  0  0  0  0  0  0  0
  -11.8940    9.4420  -10.6550 C   0  0  0  0  0  0  0  0  0  0  0  0
  -11.2900    8.0560  -10.8500 C   0  0  0  0  0  0  0  0  0  0  0  0
  -10.5820    7.9840  -12.0630 O   0  0  0  0  0  0  0  0  0  0  0  0
   -9.4670    8.8340  -12.0290 C   0  0  0  0  0  0  0  0  0  0  0  0
   -9.9280   10.2850  -11.9510 C   0  0  0  0  0  0  0  0  0  0  0  0
 27 28  1  0
 28 29  1  0
 29 30  1  0
 30 31  1  0
 31 26  1  0
 26 25  1  0
 25 24  1  0
 24  1  1  0
  1  2  2  0
  2  3  1  0
  3  4  2  0
  4  5  1  0
  5 34  1  0
 34 35  1  0
 35 36  1  0
 36 37  1  0
 37 38  1  0
 38 39  1  0
 39 40  1  0
  5  6  2  0
  4  7  1  0
  7 12  1  0
 12 14  1  0
 14 15  2  0
 15 16  1  0
 15 17  1  0
 17 18  2  0
 18 19  1  0
 19 20  2  0
 20 21  1  0
 21 22  1  0
 22 23  1  0
  7  8  1  0
  8  9  2  0
  9 10  1  0
 31 32  1  0
 32 33  1  0
 33 28  1  0
  6  1  1  0
 20 14  1  0
 10  3  1  0
 40 35  1  0
 23 19  1  0
 12 13  1  0
 10 11  1  0
M  END
> <meeko>
{"is_sidechain": false}

> <source_group>
FYN canonical

> <source_system>
FYN_saracatinib

> <source_run>
vina_seed4409_ex32

> <source_seed>
4409

> <vina_pose_rank>
7

> <vina_affinity_kcal_mol>
-8.7490000000000006

> <vina_rmsd_to_crystal_angstrom>
2.5141

> <minimizedAffinity>
-8.69808

> <CNNscore>
0.3062955141

> <CNNaffinity>
7.2599987984

> <CNN_VS>
2.2237050533

> <CNNaffinity_variance>
0.1293780357

$$$$
FYN_saracatinib__vina_seed4409_ex32__pose08


 40 45  0  0  0  0  0  0  0  0999 V2000
  -10.1560   16.0340   -7.4000 C   0  0  0  0  0  0  0  0  0  0  0  0
  -11.2750   16.7050   -7.6960 C   0  0  0  0  0  0  0  0  0  0  0  0
  -11.9810   16.4370   -8.8030 C   0  0  0  0  0  0  0  0  0  0  0  0
  -11.6160   15.4700   -9.6910 C   0  0  0  0  0  0  0  0  0  0  0  0
  -10.4840   14.7690   -9.4070 C   0  0  0  0  0  0  0  0  0  0  0  0
   -9.8020   15.0810   -8.2810 C   0  0  0  0  0  0  0  0  0  0  0  0
  -12.4240   15.3050  -10.7780 C   0  0  0  0  0  0  0  0  0  0  0  0
  -13.4510   16.0580  -10.8710 N   0  0  0  0  0  0  0  0  0  0  0  0
  -13.7020   16.9240   -9.9900 C   0  0  0  0  0  0  0  0  0  0  0  0
  -13.0170   17.1510   -8.9590 N   0  0  0  0  0  0  0  0  0  0  0  0
  -13.2710   17.8450   -8.3080 H   0  0  0  0  0  0  0  0  0  0  0  0
  -12.4070   14.5150  -11.7870 N   0  0  0  0  0  0  0  0  0  0  0  0
  -11.4390   14.4060  -12.1900 H   0  0  0  0  0  0  0  0  0  0  0  0
  -13.2430   13.8110  -12.4540 C   0  0  0  0  0  0  0  0  0  0  0  0
  -13.6640   14.2350  -13.6800 C   0  0  0  0  0  0  0  0  0  0  0  0
  -13.1320   15.7110  -14.4340 Cl  0  0  0  0  0  0  0  0  0  0  0  0
  -14.5320   13.5100  -14.4120 C   0  0  0  0  0  0  0  0  0  0  0  0
  -15.0270   12.3470  -13.9670 C   0  0  0  0  0  0  0  0  0  0  0  0
  -14.6260   11.9230  -12.7660 C   0  0  0  0  0  0  0  0  0  0  0  0
  -13.7620   12.6360  -12.0320 C   0  0  0  0  0  0  0  0  0  0  0  0
  -13.5410   12.0510  -10.9690 O   0  0  0  0  0  0  0  0  0  0  0  0
  -14.3520   10.8790  -10.9160 C   0  0  0  0  0  0  0  0  0  0  0  0
  -14.9730   10.8890  -12.1960 O   0  0  0  0  0  0  0  0  0  0  0  0
   -9.4190   16.2840   -6.2680 O   0  0  0  0  0  0  0  0  0  0  0  0
   -9.5720   17.5660   -5.7070 C   0  0  0  0  0  0  0  0  0  0  0  0
   -8.2350   18.1630   -5.2350 C   0  0  0  0  0  0  0  0  0  0  0  0
   -8.2350   18.2570    0.4080 C   0  0  0  0  0  0  0  0  0  0  0  0
   -8.5570   18.3810   -1.0030 N   0  0  0  0  0  0  0  0  0  0  0  0
   -7.5570   19.1900   -1.6770 C   0  0  0  0  0  0  0  0  0  0  0  0
   -7.8290   19.2920   -3.1840 C   0  0  0  0  0  0  0  0  0  0  0  0
   -7.9090   17.9830   -3.8250 N   0  0  0  0  0  0  0  0  0  0  0  0
   -8.9250   17.2020   -3.1360 C   0  0  0  0  0  0  0  0  0  0  0  0
   -8.6280   17.0740   -1.6300 C   0  0  0  0  0  0  0  0  0  0  0  0
  -10.0110   13.7780  -10.2480 O   0  0  0  0  0  0  0  0  0  0  0  0
   -9.8730   12.4370   -9.8460 C   0  0  0  0  0  0  0  0  0  0  0  0
  -10.9480   11.9830   -8.8580 C   0  0  0  0  0  0  0  0  0  0  0  0
  -10.9780   10.4630   -8.7380 C   0  0  0  0  0  0  0  0  0  0  0  0
  -11.1740    9.8650   -9.9970 O   0  0  0  0  0  0  0  0  0  0  0  0
  -10.0740   10.1140  -10.8300 C   0  0  0  0  0  0  0  0  0  0  0  0
   -9.9850   11.6050  -11.1350 C   0  0  0  0  0  0  0  0  0  0  0  0
 27 28  1  0
 28 29  1  0
 29 30  1  0
 30 31  1  0
 31 26  1  0
 26 25  1  0
 25 24  1  0
 24  1  1  0
  1  2  2  0
  2  3  1  0
  3  4  2  0
  4  5  1  0
  5 34  1  0
 34 35  1  0
 35 36  1  0
 36 37  1  0
 37 38  1  0
 38 39  1  0
 39 40  1  0
  5  6  2  0
  4  7  1  0
  7 12  1  0
 12 14  1  0
 14 15  2  0
 15 16  1  0
 15 17  1  0
 17 18  2  0
 18 19  1  0
 19 20  2  0
 20 21  1  0
 21 22  1  0
 22 23  1  0
  7  8  1  0
  8  9  2  0
  9 10  1  0
 31 32  1  0
 32 33  1  0
 33 28  1  0
  6  1  1  0
 20 14  1  0
 10  3  1  0
 40 35  1  0
 23 19  1  0
 12 13  1  0
 10 11  1  0
M  END
> <meeko>
{"is_sidechain": false}

> <source_group>
FYN canonical

> <source_system>
FYN_saracatinib

> <source_run>
vina_seed4409_ex32

> <source_seed>
4409

> <vina_pose_rank>
8

> <vina_affinity_kcal_mol>
-8.6600000000000001

> <vina_rmsd_to_crystal_angstrom>
2.4169

> <minimizedAffinity>
-8.69899

> <CNNscore>
0.9080846310

> <CNNaffinity>
8.0470771790

> <CNN_VS>
7.3074269295

> <CNNaffinity_variance>
0.2161932737

$$$$
FYN_saracatinib__vina_seed4409_ex32__pose09


 40 45  0  0  0  0  0  0  0  0999 V2000
  -12.1830   15.8890   -9.8200 C   0  0  0  0  0  0  0  0  0  0  0  0
  -12.0630   16.8150   -8.8610 C   0  0  0  0  0  0  0  0  0  0  0  0
  -11.0930   16.7470   -7.9380 C   0  0  0  0  0  0  0  0  0  0  0  0
  -10.1700   15.7440   -7.9150 C   0  0  0  0  0  0  0  0  0  0  0  0
  -10.2690   14.7940   -8.8860 C   0  0  0  0  0  0  0  0  0  0  0  0
  -11.2690   14.9020   -9.7900 C   0  0  0  0  0  0  0  0  0  0  0  0
   -9.2410   15.7950   -6.9180 C   0  0  0  0  0  0  0  0  0  0  0  0
   -9.3050   16.7720   -6.0990 N   0  0  0  0  0  0  0  0  0  0  0  0
  -10.2010   17.6540   -6.2100 C   0  0  0  0  0  0  0  0  0  0  0  0
  -11.0990   17.6890   -7.0900 N   0  0  0  0  0  0  0  0  0  0  0  0
  -11.7700   18.4090   -7.1190 H   0  0  0  0  0  0  0  0  0  0  0  0
   -8.2440   15.0580   -6.5920 N   0  0  0  0  0  0  0  0  0  0  0  0
   -7.8830   14.4970   -7.4080 H   0  0  0  0  0  0  0  0  0  0  0  0
   -7.5540   14.8050   -5.5440 C   0  0  0  0  0  0  0  0  0  0  0  0
   -6.2410   15.1700   -5.4900 C   0  0  0  0  0  0  0  0  0  0  0  0
   -5.4040   15.9860   -6.7790 Cl  0  0  0  0  0  0  0  0  0  0  0  0
   -5.4920   14.9310   -4.3950 C   0  0  0  0  0  0  0  0  0  0  0  0
   -5.9980   14.3150   -3.3180 C   0  0  0  0  0  0  0  0  0  0  0  0
   -7.2810   13.9470   -3.3620 C   0  0  0  0  0  0  0  0  0  0  0  0
   -8.0340   14.1830   -4.4440 C   0  0  0  0  0  0  0  0  0  0  0  0
   -9.1760   13.7570   -4.2540 O   0  0  0  0  0  0  0  0  0  0  0  0
   -9.2190   13.1180   -2.9790 C   0  0  0  0  0  0  0  0  0  0  0  0
   -7.9120   13.3710   -2.4760 O   0  0  0  0  0  0  0  0  0  0  0  0
  -13.1630   15.9410  -10.7810 O   0  0  0  0  0  0  0  0  0  0  0  0
  -13.2150   14.8440  -11.6630 C   0  0  0  0  0  0  0  0  0  0  0  0
  -13.2510   15.2780  -13.1380 C   0  0  0  0  0  0  0  0  0  0  0  0
  -17.5750   12.5650  -15.5470 C   0  0  0  0  0  0  0  0  0  0  0  0
  -16.4030   12.9440  -14.7760 N   0  0  0  0  0  0  0  0  0  0  0  0
  -15.3620   13.4420  -15.6580 C   0  0  0  0  0  0  0  0  0  0  0  0
  -14.1290   13.9130  -14.8740 C   0  0  0  0  0  0  0  0  0  0  0  0
  -14.4570   14.9340  -13.8830 N   0  0  0  0  0  0  0  0  0  0  0  0
  -15.4930   14.4020  -13.0090 C   0  0  0  0  0  0  0  0  0  0  0  0
  -16.7410   13.9630  -13.7990 C   0  0  0  0  0  0  0  0  0  0  0  0
   -9.3980   13.7220   -8.9460 O   0  0  0  0  0  0  0  0  0  0  0  0
   -9.7450   12.4860   -9.5210 C   0  0  0  0  0  0  0  0  0  0  0  0
   -8.5910   11.8150  -10.2670 C   0  0  0  0  0  0  0  0  0  0  0  0
   -8.8990   10.3480  -10.5510 C   0  0  0  0  0  0  0  0  0  0  0  0
   -9.1920    9.6580   -9.3610 O   0  0  0  0  0  0  0  0  0  0  0  0
  -10.3780   10.1460   -8.7950 C   0  0  0  0  0  0  0  0  0  0  0  0
  -10.1810   11.5910   -8.3500 C   0  0  0  0  0  0  0  0  0  0  0  0
 27 28  1  0
 28 29  1  0
 29 30  1  0
 30 31  1  0
 31 26  1  0
 26 25  1  0
 25 24  1  0
 24  1  1  0
  1  2  2  0
  2  3  1  0
  3  4  2  0
  4  5  1  0
  5 34  1  0
 34 35  1  0
 35 36  1  0
 36 37  1  0
 37 38  1  0
 38 39  1  0
 39 40  1  0
  5  6  2  0
  4  7  1  0
  7 12  1  0
 12 14  1  0
 14 15  2  0
 15 16  1  0
 15 17  1  0
 17 18  2  0
 18 19  1  0
 19 20  2  0
 20 21  1  0
 21 22  1  0
 22 23  1  0
  7  8  1  0
  8  9  2  0
  9 10  1  0
 31 32  1  0
 32 33  1  0
 33 28  1  0
  6  1  1  0
 20 14  1  0
 10  3  1  0
 40 35  1  0
 23 19  1  0
 12 13  1  0
 10 11  1  0
M  END
> <meeko>
{"is_sidechain": false}

> <source_group>
FYN canonical

> <source_system>
FYN_saracatinib

> <source_run>
vina_seed4409_ex32

> <source_seed>
4409

> <vina_pose_rank>
9

> <vina_affinity_kcal_mol>
-8.5999999999999996

> <vina_rmsd_to_crystal_angstrom>
9.5433000000000003

> <minimizedAffinity>
-8.72185

> <CNNscore>
0.1488365382

> <CNNaffinity>
5.9663829803

> <CNN_VS>
0.8880158067

> <CNNaffinity_variance>
1.5541205406

$$$$
FYN_saracatinib__vina_seed4409_ex32__pose10


 40 45  0  0  0  0  0  0  0  0999 V2000
  -12.3930   15.8600  -10.0440 C   0  0  0  0  0  0  0  0  0  0  0  0
  -12.1990   16.7310   -9.0470 C   0  0  0  0  0  0  0  0  0  0  0  0
  -11.1890   16.5870   -8.1760 C   0  0  0  0  0  0  0  0  0  0  0  0
  -10.2980   15.5590   -8.2480 C   0  0  0  0  0  0  0  0  0  0  0  0
  -10.4720   14.6630   -9.2590 C   0  0  0  0  0  0  0  0  0  0  0  0
  -11.5090   14.8460  -10.1080 C   0  0  0  0  0  0  0  0  0  0  0  0
   -9.3220   15.5310   -7.2950 C   0  0  0  0  0  0  0  0  0  0  0  0
   -9.3170   16.4660   -6.4260 N   0  0  0  0  0  0  0  0  0  0  0  0
  -10.1900   17.3780   -6.4490 C   0  0  0  0  0  0  0  0  0  0  0  0
  -11.1260   17.4840   -7.2830 N   0  0  0  0  0  0  0  0  0  0  0  0
  -11.7750   18.2240   -7.2430 H   0  0  0  0  0  0  0  0  0  0  0  0
   -8.3350   14.7500   -7.0560 N   0  0  0  0  0  0  0  0  0  0  0  0
   -8.1960   14.0390   -7.8220 H   0  0  0  0  0  0  0  0  0  0  0  0
   -7.4570   14.5840   -6.1390 C   0  0  0  0  0  0  0  0  0  0  0  0
   -7.6600   13.6540   -5.1620 C   0  0  0  0  0  0  0  0  0  0  0  0
   -9.0690   12.6370   -5.0660 Cl  0  0  0  0  0  0  0  0  0  0  0  0
   -6.7490   13.4460   -4.1920 C   0  0  0  0  0  0  0  0  0  0  0  0
   -5.6090   14.1490   -4.1360 C   0  0  0  0  0  0  0  0  0  0  0  0
   -5.4010   15.0670   -5.0830 C   0  0  0  0  0  0  0  0  0  0  0  0
   -6.3000   15.2790   -6.0530 C   0  0  0  0  0  0  0  0  0  0  0  0
   -5.8940   16.1660   -6.8070 O   0  0  0  0  0  0  0  0  0  0  0  0
   -4.6560   16.6630   -6.3010 C   0  0  0  0  0  0  0  0  0  0  0  0
   -4.4220   15.8050   -5.1910 O   0  0  0  0  0  0  0  0  0  0  0  0
  -13.4130   15.9890  -10.9530 O   0  0  0  0  0  0  0  0  0  0  0  0
  -13.5140   14.9630  -11.9120 C   0  0  0  0  0  0  0  0  0  0  0  0
  -13.6890   15.5080  -13.3390 C   0  0  0  0  0  0  0  0  0  0  0  0
  -17.7220   12.3910  -15.7630 C   0  0  0  0  0  0  0  0  0  0  0  0
  -16.5800   12.8770  -15.0080 N   0  0  0  0  0  0  0  0  0  0  0  0
  -15.6430   13.5480  -15.8920 C   0  0  0  0  0  0  0  0  0  0  0  0
  -14.4510   14.1330  -15.1210 C   0  0  0  0  0  0  0  0  0  0  0  0
  -14.8690   15.0510  -14.0660 N   0  0  0  0  0  0  0  0  0  0  0  0
  -15.7960   14.3480  -13.1920 C   0  0  0  0  0  0  0  0  0  0  0  0
  -17.0070   13.7940  -13.9670 C   0  0  0  0  0  0  0  0  0  0  0  0
   -9.6380   13.5710   -9.4150 O   0  0  0  0  0  0  0  0  0  0  0  0
  -10.0240   12.4070  -10.1040 C   0  0  0  0  0  0  0  0  0  0  0  0
   -8.9020   11.7940  -10.9430 C   0  0  0  0  0  0  0  0  0  0  0  0
   -9.2460   10.3700  -11.3670 C   0  0  0  0  0  0  0  0  0  0  0  0
   -9.5260    9.5680  -10.2460 O   0  0  0  0  0  0  0  0  0  0  0  0
  -10.6890   10.0160   -9.6030 C   0  0  0  0  0  0  0  0  0  0  0  0
  -10.4510   11.4050   -9.0190 C   0  0  0  0  0  0  0  0  0  0  0  0
 27 28  1  0
 28 29  1  0
 29 30  1  0
 30 31  1  0
 31 26  1  0
 26 25  1  0
 25 24  1  0
 24  1  1  0
  1  2  2  0
  2  3  1  0
  3  4  2  0
  4  5  1  0
  5 34  1  0
 34 35  1  0
 35 36  1  0
 36 37  1  0
 37 38  1  0
 38 39  1  0
 39 40  1  0
  5  6  2  0
  4  7  1  0
  7 12  1  0
 12 14  1  0
 14 15  2  0
 15 16  1  0
 15 17  1  0
 17 18  2  0
 18 19  1  0
 19 20  2  0
 20 21  1  0
 21 22  1  0
 22 23  1  0
  7  8  1  0
  8  9  2  0
  9 10  1  0
 31 32  1  0
 32 33  1  0
 33 28  1  0
  6  1  1  0
 20 14  1  0
 10  3  1  0
 40 35  1  0
 23 19  1  0
 12 13  1  0
 10 11  1  0
M  END
> <meeko>
{"is_sidechain": false}

> <source_group>
FYN canonical

> <source_system>
FYN_saracatinib

> <source_run>
vina_seed4409_ex32

> <source_seed>
4409

> <vina_pose_rank>
10

> <vina_affinity_kcal_mol>
-8.5139999999999993

> <vina_rmsd_to_crystal_angstrom>
9.3925000000000001

> <minimizedAffinity>
-8.65185

> <CNNscore>
0.0960844308

> <CNNaffinity>
5.9934597015

> <CNN_VS>
0.5758781433

> <CNNaffinity_variance>
1.3902560472

$$$$
