
     RDKit          3D

 45 47  0  0  0  0  0  0  0  0999 V2000
    1.3381   -0.6590   -2.7969 O   0  0  0  0  0  0  0  0  0  0  0  0
    1.3195   -0.7073   -1.5725 C   0  0  0  0  0  0  0  0  0  0  0  0
    0.4121   -1.4624   -0.8687 N   0  0  0  0  0  0  0  0  0  0  0  0
   -0.5718   -2.3145   -1.5431 C   0  0  2  0  0  0  0  0  0  0  0  0
   -1.7389   -1.5141   -2.1458 C   0  0  0  0  0  0  0  0  0  0  0  0
   -2.4678   -0.6560   -1.1394 C   0  0  0  0  0  0  0  0  0  0  0  0
   -3.7210   -0.8996   -0.7239 C   0  0  0  0  0  0  0  0  0  0  0  0
   -4.4448   -0.0720    0.2510 C   0  0  0  0  0  0  0  0  0  0  0  0
   -5.8363    0.0603    0.1271 C   0  0  0  0  0  0  0  0  0  0  0  0
   -6.5702    0.8133    1.0496 C   0  0  0  0  0  0  0  0  0  0  0  0
   -5.9192    1.4325    2.1134 C   0  0  0  0  0  0  0  0  0  0  0  0
   -4.5437    1.2892    2.2463 C   0  0  0  0  0  0  0  0  0  0  0  0
   -3.9175    1.8740    3.2764 F   0  0  0  0  0  0  0  0  0  0  0  0
   -3.8045    0.5429    1.3331 C   0  0  0  0  0  0  0  0  0  0  0  0
   -1.1082   -3.3844   -0.5876 C   0  0  0  0  0  0  0  0  0  0  0  0
   -1.9357   -4.2441   -0.8470 O   0  0  0  0  0  0  0  0  0  0  0  0
   -0.5674   -3.3219    0.6542 O   0  0  0  0  0  0  0  0  0  0  0  0
    2.3257    0.0417   -0.7702 C   0  0  0  0  0  0  0  0  0  0  0  0
    2.0745    0.4471    0.5444 C   0  0  0  0  0  0  0  0  0  0  0  0
    3.0496    1.1512    1.2567 C   0  0  0  0  0  0  0  0  0  0  0  0
    4.2838    1.4667    0.6664 C   0  0  0  0  0  0  0  0  0  0  0  0
    5.2723    2.1724    1.3708 C   0  0  0  0  0  0  0  0  0  0  0  0
    6.4923    2.4838    0.7682 C   0  0  0  0  0  0  0  0  0  0  0  0
    6.7389    2.0953   -0.5453 C   0  0  0  0  0  0  0  0  0  0  0  0
    5.7666    1.3938   -1.2597 C   0  0  0  0  0  0  0  0  0  0  0  0
    4.5349    1.0713   -0.6679 C   0  0  0  0  0  0  0  0  0  0  0  0
    3.5476    0.3656   -1.3741 C   0  0  0  0  0  0  0  0  0  0  0  0
    0.5605   -1.6607    0.1150 H   0  0  0  0  0  0  0  0  0  0  0  0
   -0.0414   -2.8479   -2.3416 H   0  0  0  0  0  0  0  0  0  0  0  0
   -2.4411   -2.2032   -2.6324 H   0  0  0  0  0  0  0  0  0  0  0  0
   -1.3655   -0.8518   -2.9362 H   0  0  0  0  0  0  0  0  0  0  0  0
   -1.9187    0.2099   -0.7752 H   0  0  0  0  0  0  0  0  0  0  0  0
   -4.2703   -1.7505   -1.1234 H   0  0  0  0  0  0  0  0  0  0  0  0
   -6.3619   -0.4165   -0.6983 H   0  0  0  0  0  0  0  0  0  0  0  0
   -7.6466    0.9137    0.9356 H   0  0  0  0  0  0  0  0  0  0  0  0
   -6.4724    2.0197    2.8391 H   0  0  0  0  0  0  0  0  0  0  0  0
   -2.7352    0.4461    1.4886 H   0  0  0  0  0  0  0  0  0  0  0  0
   -1.0132   -4.0550    1.1314 H   0  0  0  0  0  0  0  0  0  0  0  0
    1.1203    0.2497    1.0239 H   0  0  0  0  0  0  0  0  0  0  0  0
    2.8353    1.4615    2.2775 H   0  0  0  0  0  0  0  0  0  0  0  0
    5.0987    2.4876    2.3973 H   0  0  0  0  0  0  0  0  0  0  0  0
    7.2487    3.0313    1.3245 H   0  0  0  0  0  0  0  0  0  0  0  0
    7.6878    2.3389   -1.0162 H   0  0  0  0  0  0  0  0  0  0  0  0
    5.9775    1.1005   -2.2860 H   0  0  0  0  0  0  0  0  0  0  0  0
    3.7283    0.0608   -2.4039 H   0  0  0  0  0  0  0  0  0  0  0  0
  1  2  2  0
  2  3  1  0
  3  4  1  0
  4  5  1  0
  5  6  1  0
  6  7  2  0
  7  8  1  0
  8  9  2  0
  9 10  1  0
 10 11  2  0
 11 12  1  0
 12 13  1  0
 12 14  2  0
  4 15  1  0
 15 16  2  0
 15 17  1  0
  2 18  1  0
 18 19  1  0
 19 20  2  0
 20 21  1  0
 21 22  2  0
 22 23  1  0
 23 24  2  0
 24 25  1  0
 25 26  2  0
 26 27  1  0
 14  8  1  0
 27 18  2  0
 26 21  1  0
  3 28  1  0
  4 29  1  6
  5 30  1  0
  5 31  1  0
  6 32  1  0
  7 33  1  0
  9 34  1  0
 10 35  1  0
 11 36  1  0
 14 37  1  0
 17 38  1  0
 19 39  1  0
 20 40  1  0
 22 41  1  0
 23 42  1  0
 24 43  1  0
 25 44  1  0
 27 45  1  0
M  END
$$$$
