
     RDKit          3D

 44 47  0  0  0  0  0  0  0  0999 V2000
   -5.0243    2.7944    1.2322 C   0  0  0  0  0  0  0  0  0  0  0  0
   -4.0266    2.0456    0.3971 C   0  0  0  0  0  0  0  0  0  0  0  0
   -3.1881    2.7371   -0.4905 C   0  0  0  0  0  0  0  0  0  0  0  0
   -2.2678    2.0689   -1.3088 C   0  0  0  0  0  0  0  0  0  0  0  0
   -2.2339    0.6781   -1.2059 C   0  0  0  0  0  0  0  0  0  0  0  0
   -1.4821   -0.2773   -1.8381 N   0  0  0  0  0  0  0  0  0  0  0  0
   -1.8527   -1.5069   -1.3496 C   0  0  0  0  0  0  0  0  0  0  0  0
   -1.1891   -2.7691   -1.7895 C   0  0  0  0  0  0  0  0  0  0  0  0
   -0.2646   -3.3434   -0.7076 C   0  0  1  0  0  0  0  0  0  0  0  0
    0.6728   -2.3666   -0.1459 N   0  0  0  0  0  0  0  0  0  0  0  0
    1.6478   -1.7315   -0.8704 C   0  0  0  0  0  0  0  0  0  0  0  0
    1.7861   -1.9522   -2.0722 O   0  0  0  0  0  0  0  0  0  0  0  0
    2.4675   -0.7733   -0.1446 C   0  0  0  0  0  0  0  0  0  0  0  0
    3.5244   -0.0452   -0.6539 C   0  0  0  0  0  0  0  0  0  0  0  0
    4.1327    0.8289    0.3061 C   0  0  0  0  0  0  0  0  0  0  0  0
    5.2225    1.7229    0.1780 C   0  0  0  0  0  0  0  0  0  0  0  0
    5.6436    2.4859    1.2713 C   0  0  0  0  0  0  0  0  0  0  0  0
    4.9964    2.3742    2.4940 C   0  0  0  0  0  0  0  0  0  0  0  0
    3.9183    1.4999    2.6498 C   0  0  0  0  0  0  0  0  0  0  0  0
    3.4981    0.7331    1.5457 C   0  0  0  0  0  0  0  0  0  0  0  0
    2.2052   -0.4013    1.5015 S   0  0  0  0  0  0  0  0  0  0  0  0
   -1.1035   -3.9830    0.4016 C   0  0  0  0  0  0  0  0  0  0  0  0
   -1.9261   -4.8748    0.2618 O   0  0  0  0  0  0  0  0  0  0  0  0
   -0.8481   -3.4805    1.6333 O   0  0  0  0  0  0  0  0  0  0  0  0
   -2.8052   -1.3915   -0.4483 N   0  0  0  0  0  0  0  0  0  0  0  0
   -3.0543   -0.0437   -0.3481 C   0  0  0  0  0  0  0  0  0  0  0  0
   -3.9710    0.6419    0.4626 C   0  0  0  0  0  0  0  0  0  0  0  0
   -5.9618    2.9105    0.6799 H   0  0  0  0  0  0  0  0  0  0  0  0
   -4.6439    3.7862    1.4984 H   0  0  0  0  0  0  0  0  0  0  0  0
   -5.2279    2.2634    2.1680 H   0  0  0  0  0  0  0  0  0  0  0  0
   -3.2465    3.8229   -0.5523 H   0  0  0  0  0  0  0  0  0  0  0  0
   -1.6210    2.6125   -1.9885 H   0  0  0  0  0  0  0  0  0  0  0  0
   -0.7618   -0.1092   -2.5267 H   0  0  0  0  0  0  0  0  0  0  0  0
   -1.9633   -3.4982   -2.0587 H   0  0  0  0  0  0  0  0  0  0  0  0
   -0.6181   -2.5806   -2.7064 H   0  0  0  0  0  0  0  0  0  0  0  0
    0.3458   -4.1464   -1.1387 H   0  0  0  0  0  0  0  0  0  0  0  0
    0.5386   -2.1248    0.8328 H   0  0  0  0  0  0  0  0  0  0  0  0
    3.8532   -0.1364   -1.6832 H   0  0  0  0  0  0  0  0  0  0  0  0
    5.7374    1.8187   -0.7748 H   0  0  0  0  0  0  0  0  0  0  0  0
    6.4823    3.1691    1.1607 H   0  0  0  0  0  0  0  0  0  0  0  0
    5.3298    2.9713    3.3398 H   0  0  0  0  0  0  0  0  0  0  0  0
    3.4137    1.4147    3.6081 H   0  0  0  0  0  0  0  0  0  0  0  0
   -1.5158   -3.9235    2.1996 H   0  0  0  0  0  0  0  0  0  0  0  0
   -4.6185    0.0788    1.1259 H   0  0  0  0  0  0  0  0  0  0  0  0
  1  2  1  0
  2  3  2  0
  3  4  1  0
  4  5  2  0
  5  6  1  0
  6  7  1  0
  7  8  1  0
  8  9  1  0
  9 10  1  0
 10 11  1  0
 11 12  2  0
 11 13  1  0
 13 14  2  0
 14 15  1  0
 15 16  2  0
 16 17  1  0
 17 18  2  0
 18 19  1  0
 19 20  2  0
 20 21  1  0
  9 22  1  0
 22 23  2  0
 22 24  1  0
  7 25  2  0
 25 26  1  0
 26 27  2  0
 27  2  1  0
 26  5  1  0
 21 13  1  0
 20 15  1  0
  1 28  1  0
  1 29  1  0
  1 30  1  0
  3 31  1  0
  4 32  1  0
  6 33  1  0
  8 34  1  0
  8 35  1  0
  9 36  1  6
 10 37  1  0
 14 38  1  0
 16 39  1  0
 17 40  1  0
 18 41  1  0
 19 42  1  0
 24 43  1  0
 27 44  1  0
M  END
$$$$
