
     RDKit          3D

348359  0  0  0  0  0  0  0  0999 V2000
    7.4652   -6.2910    1.8157 C   0  0  0  0  0  0  0  0  0  0  0  0
    7.2005   -6.2961    0.3144 C   0  0  2  0  0  0  0  0  0  0  0  0
    8.0570   -5.2961   -0.3304 N   0  0  0  0  0  0  0  0  0  0  0  0
    8.3629   -5.3950   -1.6769 C   0  0  0  0  0  0  0  0  0  0  0  0
    7.9563   -6.3194   -2.3785 O   0  0  0  0  0  0  0  0  0  0  0  0
    9.0864   -4.1504   -2.2513 C   0  0  2  0  0  0  0  0  0  0  0  0
    9.5597   -4.3400   -3.7003 C   0  0  0  0  0  0  0  0  0  0  0  0
   10.6348   -5.4065   -3.9483 C   0  0  0  0  0  0  0  0  0  0  0  0
   12.0825   -4.9603   -3.7126 C   0  0  0  0  0  0  0  0  0  0  0  0
   12.5130   -5.0115   -2.3061 N   0  0  0  0  0  0  0  0  0  0  0  0
   12.7428   -6.2144   -1.7068 C   0  0  0  0  0  0  0  0  0  0  0  0
   12.2716   -7.3302   -2.1354 N   0  0  0  0  0  0  0  0  0  0  0  0
   13.4703   -6.1182   -0.5806 N   0  0  0  0  0  0  0  0  0  0  0  0
   10.1663   -3.6388   -1.4142 N   0  0  0  0  0  0  0  0  0  0  0  0
    9.9593   -2.7942   -0.3517 C   0  0  0  0  0  0  0  0  0  0  0  0
    8.8287   -2.5421    0.0765 O   0  0  0  0  0  0  0  0  0  0  0  0
   11.2365   -2.1935    0.2699 C   0  0  2  0  0  0  0  0  0  0  0  0
   11.9841   -3.2542    1.0946 C   0  0  0  0  0  0  0  0  0  0  0  0
   13.4224   -2.9133    1.4224 C   0  0  0  0  0  0  0  0  0  0  0  0
   13.8864   -3.0273    2.7374 C   0  0  0  0  0  0  0  0  0  0  0  0
   15.2192   -2.7456    3.0514 C   0  0  0  0  0  0  0  0  0  0  0  0
   16.1266   -2.3544    2.0550 C   0  0  0  0  0  0  0  0  0  0  0  0
   17.4684   -2.0661    2.3533 C   0  0  0  0  0  0  0  0  0  0  0  0
   18.3556   -1.6758    1.3497 C   0  0  0  0  0  0  0  0  0  0  0  0
   17.9136   -1.5636    0.0364 C   0  0  0  0  0  0  0  0  0  0  0  0
   16.5820   -1.8463   -0.2764 C   0  0  0  0  0  0  0  0  0  0  0  0
   15.6767   -2.2444    0.7223 C   0  0  0  0  0  0  0  0  0  0  0  0
   14.3335   -2.5322    0.4238 C   0  0  0  0  0  0  0  0  0  0  0  0
   10.8375   -1.0557    1.0988 N   0  0  0  0  0  0  0  0  0  0  0  0
   11.4518    0.1784    0.9906 C   0  0  0  0  0  0  0  0  0  0  0  0
   12.4438    0.3703    0.2946 O   0  0  0  0  0  0  0  0  0  0  0  0
   10.8151    1.2661    1.8957 C   0  0  1  0  0  0  0  0  0  0  0  0
   11.1968    1.0225    3.3624 C   0  0  0  0  0  0  0  0  0  0  0  0
   12.6601    1.3553    3.6574 C   0  0  0  0  0  0  0  0  0  0  0  0
   13.1793    2.5535    2.8652 C   0  0  0  0  0  0  0  0  0  0  0  0
   12.0581    3.4127    2.2947 C   0  0  0  0  0  0  0  0  0  0  0  0
   11.1554    2.6285    1.4501 N   0  0  0  0  0  0  0  0  0  0  0  0
   10.4774    3.1198    0.3441 C   0  0  0  0  0  0  0  0  0  0  0  0
    9.6892    2.4104   -0.2955 O   0  0  0  0  0  0  0  0  0  0  0  0
   10.7161    4.5765   -0.1077 C   0  0  1  0  0  0  0  0  0  0  0  0
   11.9736    4.7943   -0.9845 C   0  0  2  0  0  0  0  0  0  0  0  0
   12.8922    3.5966   -1.1907 C   0  0  0  0  0  0  0  0  0  0  0  0
   12.7714    5.8571   -0.4355 O   0  0  0  0  0  0  0  0  0  0  0  0
    9.5107    4.9457   -0.8800 N   0  0  0  0  0  0  0  0  0  0  0  0
    8.4357    5.5585   -0.2655 C   0  0  0  0  0  0  0  0  0  0  0  0
    8.5008    6.0578    0.8583 O   0  0  0  0  0  0  0  0  0  0  0  0
    7.1285    5.5401   -1.0858 C   0  0  2  0  0  0  0  0  0  0  0  0
    7.2518    6.2502   -2.4433 C   0  0  0  0  0  0  0  0  0  0  0  0
    7.5467    7.7320   -2.3749 C   0  0  0  0  0  0  0  0  0  0  0  0
    6.4982    8.6584   -2.4661 C   0  0  0  0  0  0  0  0  0  0  0  0
    6.7596   10.0281   -2.4051 C   0  0  0  0  0  0  0  0  0  0  0  0
    8.0650   10.4718   -2.2524 C   0  0  0  0  0  0  0  0  0  0  0  0
    8.3131   11.7851   -2.1851 F   0  0  0  0  0  0  0  0  0  0  0  0
    9.1205    9.5716   -2.1668 C   0  0  0  0  0  0  0  0  0  0  0  0
    8.8606    8.2017   -2.2317 C   0  0  0  0  0  0  0  0  0  0  0  0
    6.0351    6.0461   -0.2474 N   0  0  0  0  0  0  0  0  0  0  0  0
    4.7615    5.5450   -0.4031 C   0  0  0  0  0  0  0  0  0  0  0  0
    4.4449    4.8495   -1.3711 O   0  0  0  0  0  0  0  0  0  0  0  0
    3.7745    5.8299    0.7493 C   0  0  1  0  0  0  0  0  0  0  0  0
    3.4016    7.3126    0.9029 C   0  0  0  0  0  0  0  0  0  0  0  0
    2.8090    8.0261   -0.2943 C   0  0  0  0  0  0  0  0  0  0  0  0
    1.6924    7.5289   -0.9771 C   0  0  0  0  0  0  0  0  0  0  0  0
    1.1395    8.2307   -2.0510 C   0  0  0  0  0  0  0  0  0  0  0  0
    1.6839    9.4507   -2.4422 C   0  0  0  0  0  0  0  0  0  0  0  0
    2.7757    9.9728   -1.7559 C   0  0  0  0  0  0  0  0  0  0  0  0
    3.3342    9.2665   -0.6875 C   0  0  0  0  0  0  0  0  0  0  0  0
    2.6505    4.9093    0.5820 N   0  0  0  0  0  0  0  0  0  0  0  0
    1.7980    4.5908    1.6021 C   0  0  0  0  0  0  0  0  0  0  0  0
    1.6956    5.1893    2.6622 O   0  0  0  0  0  0  0  0  0  0  0  0
    1.0274    3.3581    1.3761 C   0  0  0  0  0  0  0  0  0  0  0  0
   -0.3104    3.4034    0.9608 C   0  0  0  0  0  0  0  0  0  0  0  0
   -0.9988    2.1988    0.7621 C   0  0  0  0  0  0  0  0  0  0  0  0
   -0.3455    0.9794    0.9908 C   0  0  0  0  0  0  0  0  0  0  0  0
    0.9844    0.9603    1.4083 C   0  0  0  0  0  0  0  0  0  0  0  0
    1.6818    2.1458    1.6115 C   0  0  0  0  0  0  0  0  0  0  0  0
    1.6512   -0.3334    1.6260 C   0  0  0  0  0  0  0  0  0  0  0  0
    1.9395   -1.0342    0.6668 O   0  0  0  0  0  0  0  0  0  0  0  0
    1.8418   -0.6601    2.9421 N   0  0  0  0  0  0  0  0  0  0  0  0
    2.4054   -1.9270    3.4049 C   0  0  0  0  0  0  0  0  0  0  0  0
    1.7514   -3.2210    2.8602 C   0  0  2  0  0  0  0  0  0  0  0  0
    2.2143   -3.5778    1.5128 N   0  0  0  0  0  0  0  0  0  0  0  0
    3.5227   -3.9875    1.3184 C   0  0  0  0  0  0  0  0  0  0  0  0
    4.3051   -4.1034    2.2659 O   0  0  0  0  0  0  0  0  0  0  0  0
    3.9193   -4.3390   -0.1401 C   0  0  1  0  0  0  0  0  0  0  0  0
    3.6931   -3.1747   -1.1158 C   0  0  0  0  0  0  0  0  0  0  0  0
    3.9462   -3.5493   -2.5600 C   0  0  0  0  0  0  0  0  0  0  0  0
    3.1326   -4.4979   -3.1987 C   0  0  0  0  0  0  0  0  0  0  0  0
    3.3585   -4.8463   -4.5302 C   0  0  0  0  0  0  0  0  0  0  0  0
    4.3986   -4.2501   -5.2383 C   0  0  0  0  0  0  0  0  0  0  0  0
    5.2112   -3.3025   -4.6151 C   0  0  0  0  0  0  0  0  0  0  0  0
    4.9863   -2.9527   -3.2822 C   0  0  0  0  0  0  0  0  0  0  0  0
    5.3272   -4.7459   -0.1468 N   0  0  0  0  0  0  0  0  0  0  0  0
    5.6932   -6.0577    0.0726 C   0  0  0  0  0  0  0  0  0  0  0  0
    4.8641   -6.9590    0.2058 O   0  0  0  0  0  0  0  0  0  0  0  0
    0.2134   -3.1023    2.9363 C   0  0  0  0  0  0  0  0  0  0  0  0
   -0.3549   -2.4920    3.8427 O   0  0  0  0  0  0  0  0  0  0  0  0
   -0.4815   -3.7764    1.9576 N   0  0  0  0  0  0  0  0  0  0  0  0
   -1.9315   -3.6626    1.8060 C   0  0  1  0  0  0  0  0  0  0  0  0
   -2.3120   -2.7880    0.5929 C   0  0  0  0  0  0  0  0  0  0  0  0
   -1.7293   -3.2027   -0.7430 C   0  0  0  0  0  0  0  0  0  0  0  0
   -2.2492   -4.2955   -1.4483 C   0  0  0  0  0  0  0  0  0  0  0  0
   -1.7193   -4.6608   -2.6884 C   0  0  0  0  0  0  0  0  0  0  0  0
   -0.6764   -3.9270   -3.2456 C   0  0  0  0  0  0  0  0  0  0  0  0
   -0.1575   -2.8325   -2.5613 C   0  0  0  0  0  0  0  0  0  0  0  0
   -0.6772   -2.4754   -1.3154 C   0  0  0  0  0  0  0  0  0  0  0  0
   -2.6326   -5.0347    1.7417 C   0  0  0  0  0  0  0  0  0  0  0  0
   -2.0566   -6.0737    1.4245 O   0  0  0  0  0  0  0  0  0  0  0  0
   -3.9844   -4.9815    2.0295 N   0  0  0  0  0  0  0  0  0  0  0  0
   -4.9218   -6.0083    1.5474 C   0  0  1  0  0  0  0  0  0  0  0  0
   -5.7384   -6.5619    2.7233 C   0  0  0  0  0  0  0  0  0  0  0  0
   -6.4301   -7.8736    2.4298 C   0  0  0  0  0  0  0  0  0  0  0  0
   -5.6960   -8.9873    2.0083 C   0  0  0  0  0  0  0  0  0  0  0  0
   -6.3442  -10.1751    1.6660 C   0  0  0  0  0  0  0  0  0  0  0  0
   -7.7387  -10.2817    1.7587 C   0  0  0  0  0  0  0  0  0  0  0  0
   -8.4024  -11.4633    1.3966 C   0  0  0  0  0  0  0  0  0  0  0  0
   -9.7901  -11.5602    1.5015 C   0  0  0  0  0  0  0  0  0  0  0  0
  -10.5287  -10.4809    1.9780 C   0  0  0  0  0  0  0  0  0  0  0  0
   -9.8823   -9.2979    2.3413 C   0  0  0  0  0  0  0  0  0  0  0  0
   -8.4872   -9.1805    2.2296 C   0  0  0  0  0  0  0  0  0  0  0  0
   -7.8216   -7.9887    2.5657 C   0  0  0  0  0  0  0  0  0  0  0  0
   -5.7802   -5.2728    0.4872 C   0  0  0  0  0  0  0  0  0  0  0  0
   -5.5705   -4.0897    0.2075 O   0  0  0  0  0  0  0  0  0  0  0  0
   -6.7675   -5.9934   -0.1586 N   0  0  0  0  0  0  0  0  0  0  0  0
   -7.6486   -5.2735   -1.0797 C   0  0  1  0  0  0  0  0  0  0  0  0
   -8.4285   -6.1848   -2.0380 C   0  0  0  0  0  0  0  0  0  0  0  0
   -9.2241   -7.3609   -1.4484 C   0  0  0  0  0  0  0  0  0  0  0  0
  -10.4557   -7.0130   -0.6170 C   0  0  0  0  0  0  0  0  0  0  0  0
  -11.3831   -6.1980   -1.3902 N   0  0  0  0  0  0  0  0  0  0  0  0
  -12.2037   -5.2751   -0.8359 C   0  0  0  0  0  0  0  0  0  0  0  0
  -12.0027   -4.5308    0.1858 N   0  0  0  0  0  0  0  0  0  0  0  0
  -13.3504   -5.1417   -1.5291 N   0  0  0  0  0  0  0  0  0  0  0  0
   -8.5553   -4.3062   -0.2957 C   0  0  0  0  0  0  0  0  0  0  0  0
   -9.0519   -4.5983    0.7918 O   0  0  0  0  0  0  0  0  0  0  0  0
   -8.7591   -3.0951   -0.9111 N   0  0  0  0  0  0  0  0  0  0  0  0
   -9.4205   -1.9736   -0.2336 C   0  0  1  0  0  0  0  0  0  0  0  0
   -8.5070   -1.4024    0.8644 C   0  0  0  0  0  0  0  0  0  0  0  0
   -9.1910   -0.5799    1.9618 C   0  0  0  0  0  0  0  0  0  0  0  0
   -9.9604   -1.3976    3.0042 C   0  0  0  0  0  0  0  0  0  0  0  0
  -11.1469   -2.0134    2.4521 N   0  0  0  0  0  0  0  0  0  0  0  0
  -11.9969   -2.7592    3.1881 C   0  0  0  0  0  0  0  0  0  0  0  0
  -11.8920   -2.9683    4.4468 N   0  0  0  0  0  0  0  0  0  0  0  0
  -13.0044   -3.2433    2.4357 N   0  0  0  0  0  0  0  0  0  0  0  0
   -9.6893   -0.9284   -1.3371 C   0  0  0  0  0  0  0  0  0  0  0  0
   -9.0452   -0.9238   -2.3879 O   0  0  0  0  0  0  0  0  0  0  0  0
  -10.6523    0.0150   -1.0693 N   0  0  0  0  0  0  0  0  0  0  0  0
  -10.9750    1.0867   -2.0144 C   0  0  1  0  0  0  0  0  0  0  0  0
  -12.4006    0.9786   -2.5890 C   0  0  0  0  0  0  0  0  0  0  0  0
  -13.5086    0.6042   -1.5992 C   0  0  0  0  0  0  0  0  0  0  0  0
  -13.8328    1.6787   -0.5645 C   0  0  0  0  0  0  0  0  0  0  0  0
  -14.4551    1.0504    0.5917 N   0  0  0  0  0  0  0  0  0  0  0  0
  -13.6906    0.5232    1.5750 C   0  0  0  0  0  0  0  0  0  0  0  0
  -12.4094    0.4174    1.5326 N   0  0  0  0  0  0  0  0  0  0  0  0
  -14.4225    0.0946    2.6193 N   0  0  0  0  0  0  0  0  0  0  0  0
  -10.6112    2.4752   -1.4453 C   0  0  0  0  0  0  0  0  0  0  0  0
  -11.2159    3.5062   -1.7262 O   0  0  0  0  0  0  0  0  0  0  0  0
   -9.4431    2.4854   -0.7117 N   0  0  0  0  0  0  0  0  0  0  0  0
   -8.8275    3.7169   -0.2419 C   0  0  1  0  0  0  0  0  0  0  0  0
   -9.5343    4.2407    1.0222 C   0  0  0  0  0  0  0  0  0  0  0  0
   -9.4387    5.7602    1.1882 C   0  0  0  0  0  0  0  0  0  0  0  0
  -10.3931    6.5083    0.2560 C   0  0  0  0  0  0  0  0  0  0  0  0
  -10.2027    7.9428    0.4039 N   0  0  0  0  0  0  0  0  0  0  0  0
  -10.5743    8.8474   -0.5276 C   0  0  0  0  0  0  0  0  0  0  0  0
  -11.3621    8.6876   -1.5220 N   0  0  0  0  0  0  0  0  0  0  0  0
   -9.9950   10.0447   -0.3172 N   0  0  0  0  0  0  0  0  0  0  0  0
   -7.3469    3.4121    0.0696 C   0  0  0  0  0  0  0  0  0  0  0  0
   -7.0113    2.3739    0.6381 O   0  0  0  0  0  0  0  0  0  0  0  0
   -6.4489    4.3976   -0.2781 N   0  0  0  0  0  0  0  0  0  0  0  0
   -5.0113    4.2607    0.0148 C   0  0  2  0  0  0  0  0  0  0  0  0
   -4.3179    5.6421   -0.0981 C   0  0  0  0  0  0  0  0  0  0  0  0
   -3.1401    5.7866   -0.4233 O   0  0  0  0  0  0  0  0  0  0  0  0
   -5.0963    6.7070    0.3080 N   0  0  0  0  0  0  0  0  0  0  0  0
   -4.5237    8.0451    0.4704 C   0  0  1  0  0  0  0  0  0  0  0  0
   -5.5077    9.1356    0.0365 C   0  0  0  0  0  0  0  0  0  0  0  0
   -5.6074    9.3324   -1.4868 C   0  0  0  0  0  0  0  0  0  0  0  0
   -5.9744    8.0932   -2.3117 C   0  0  0  0  0  0  0  0  0  0  0  0
   -7.3518    7.5239   -1.9767 C   0  0  0  0  0  0  0  0  0  0  0  0
   -7.4911    6.1667   -2.5181 N   0  0  0  0  0  0  0  0  0  0  0  0
   -4.1839    8.2013    1.9505 C   0  0  0  0  0  0  0  0  0  0  0  0
   -4.7594    7.6482    2.8767 O   0  0  0  0  0  0  0  0  0  0  0  0
   -3.1714    9.0612    2.1787 O   0  0  0  0  0  0  0  0  0  0  0  0
   -4.2815    3.2367   -0.8774 C   0  0  0  0  0  0  0  0  0  0  0  0
   -2.8732    3.0926   -0.5171 N   0  0  0  0  0  0  0  0  0  0  0  0
   -2.4235    2.1214    0.3444 C   0  0  0  0  0  0  0  0  0  0  0  0
   -3.1197    1.1972    0.7451 O   0  0  0  0  0  0  0  0  0  0  0  0
    8.5091   -6.5435    2.0250 H   0  0  0  0  0  0  0  0  0  0  0  0
    7.2658   -5.3064    2.2513 H   0  0  0  0  0  0  0  0  0  0  0  0
    6.8275   -7.0158    2.3307 H   0  0  0  0  0  0  0  0  0  0  0  0
    7.4430   -7.2790   -0.1069 H   0  0  0  0  0  0  0  0  0  0  0  0
    8.1120   -4.3652    0.0642 H   0  0  0  0  0  0  0  0  0  0  0  0
    8.3108   -3.3702   -2.2748 H   0  0  0  0  0  0  0  0  0  0  0  0
    8.6817   -4.6109   -4.3035 H   0  0  0  0  0  0  0  0  0  0  0  0
    9.9110   -3.3773   -4.0968 H   0  0  0  0  0  0  0  0  0  0  0  0
   10.3925   -6.3246   -3.4110 H   0  0  0  0  0  0  0  0  0  0  0  0
   10.5660   -5.6634   -5.0145 H   0  0  0  0  0  0  0  0  0  0  0  0
   12.7608   -5.5817   -4.3082 H   0  0  0  0  0  0  0  0  0  0  0  0
   12.2127   -3.9343   -4.0722 H   0  0  0  0  0  0  0  0  0  0  0  0
   13.2717   -4.3612   -2.1393 H   0  0  0  0  0  0  0  0  0  0  0  0
   12.5266   -8.0918   -1.5102 H   0  0  0  0  0  0  0  0  0  0  0  0
   13.7537   -7.0040   -0.1714 H   0  0  0  0  0  0  0  0  0  0  0  0
   14.2341   -5.4536   -0.5668 H   0  0  0  0  0  0  0  0  0  0  0  0
   11.0537   -4.1410   -1.4850 H   0  0  0  0  0  0  0  0  0  0  0  0
   11.8413   -1.8278   -0.5672 H   0  0  0  0  0  0  0  0  0  0  0  0
   11.9899   -4.2156    0.5715 H   0  0  0  0  0  0  0  0  0  0  0  0
   11.4272   -3.4370    2.0231 H   0  0  0  0  0  0  0  0  0  0  0  0
   13.2129   -3.3325    3.5354 H   0  0  0  0  0  0  0  0  0  0  0  0
   15.5456   -2.8347    4.0856 H   0  0  0  0  0  0  0  0  0  0  0  0
   17.8315   -2.1414    3.3759 H   0  0  0  0  0  0  0  0  0  0  0  0
   19.3900   -1.4531    1.5964 H   0  0  0  0  0  0  0  0  0  0  0  0
   18.5991   -1.2507   -0.7456 H   0  0  0  0  0  0  0  0  0  0  0  0
   16.2534   -1.7407   -1.3073 H   0  0  0  0  0  0  0  0  0  0  0  0
   13.9985   -2.4336   -0.6055 H   0  0  0  0  0  0  0  0  0  0  0  0
    9.8879   -1.0895    1.4571 H   0  0  0  0  0  0  0  0  0  0  0  0
    9.7267    1.1540    1.8076 H   0  0  0  0  0  0  0  0  0  0  0  0
   10.5633    1.6572    3.9978 H   0  0  0  0  0  0  0  0  0  0  0  0
   10.9931   -0.0129    3.6634 H   0  0  0  0  0  0  0  0  0  0  0  0
   12.7663    1.5465    4.7317 H   0  0  0  0  0  0  0  0  0  0  0  0
   13.2909    0.4861    3.4403 H   0  0  0  0  0  0  0  0  0  0  0  0
   13.8048    2.1864    2.0431 H   0  0  0  0  0  0  0  0  0  0  0  0
   13.8338    3.1613    3.4988 H   0  0  0  0  0  0  0  0  0  0  0  0
   12.4916    4.2435    1.7381 H   0  0  0  0  0  0  0  0  0  0  0  0
   11.4545    3.8472    3.1009 H   0  0  0  0  0  0  0  0  0  0  0  0
   10.7494    5.2206    0.7756 H   0  0  0  0  0  0  0  0  0  0  0  0
   11.6755    5.1433   -1.9813 H   0  0  0  0  0  0  0  0  0  0  0  0
   13.3764    3.2863   -0.2597 H   0  0  0  0  0  0  0  0  0  0  0  0
   13.7069    3.8698   -1.8728 H   0  0  0  0  0  0  0  0  0  0  0  0
   12.3581    2.7471   -1.6274 H   0  0  0  0  0  0  0  0  0  0  0  0
   12.2241    6.6626   -0.4449 H   0  0  0  0  0  0  0  0  0  0  0  0
    9.2625    4.2467   -1.5751 H   0  0  0  0  0  0  0  0  0  0  0  0
    6.9181    4.4797   -1.2786 H   0  0  0  0  0  0  0  0  0  0  0  0
    8.0394    5.7737   -3.0434 H   0  0  0  0  0  0  0  0  0  0  0  0
    6.3289    6.1020   -3.0162 H   0  0  0  0  0  0  0  0  0  0  0  0
    5.4729    8.3160   -2.5918 H   0  0  0  0  0  0  0  0  0  0  0  0
    5.9504   10.7497   -2.4758 H   0  0  0  0  0  0  0  0  0  0  0  0
   10.1339    9.9418   -2.0514 H   0  0  0  0  0  0  0  0  0  0  0  0
    9.6955    7.5078   -2.1764 H   0  0  0  0  0  0  0  0  0  0  0  0
    6.3185    6.3998    0.6592 H   0  0  0  0  0  0  0  0  0  0  0  0
    4.2775    5.5150    1.6720 H   0  0  0  0  0  0  0  0  0  0  0  0
    4.3131    7.8472    1.2054 H   0  0  0  0  0  0  0  0  0  0  0  0
    2.7000    7.4405    1.7365 H   0  0  0  0  0  0  0  0  0  0  0  0
    1.2214    6.5985   -0.6767 H   0  0  0  0  0  0  0  0  0  0  0  0
    0.2750    7.8273   -2.5702 H   0  0  0  0  0  0  0  0  0  0  0  0
    1.2468   10.0016   -3.2709 H   0  0  0  0  0  0  0  0  0  0  0  0
    3.1917   10.9336   -2.0467 H   0  0  0  0  0  0  0  0  0  0  0  0
    4.1806    9.7004   -0.1579 H   0  0  0  0  0  0  0  0  0  0  0  0
    2.6923    4.3169   -0.2449 H   0  0  0  0  0  0  0  0  0  0  0  0
   -0.7981    4.3652    0.8255 H   0  0  0  0  0  0  0  0  0  0  0  0
   -0.8837    0.0471    0.8537 H   0  0  0  0  0  0  0  0  0  0  0  0
    2.7167    2.1247    1.9389 H   0  0  0  0  0  0  0  0  0  0  0  0
    1.3884   -0.0855    3.6479 H   0  0  0  0  0  0  0  0  0  0  0  0
    2.3104   -1.9087    4.4979 H   0  0  0  0  0  0  0  0  0  0  0  0
    3.4750   -1.8909    3.1777 H   0  0  0  0  0  0  0  0  0  0  0  0
    2.0402   -4.0544    3.5142 H   0  0  0  0  0  0  0  0  0  0  0  0
    1.8092   -2.9988    0.7778 H   0  0  0  0  0  0  0  0  0  0  0  0
    3.3039   -5.2015   -0.4230 H   0  0  0  0  0  0  0  0  0  0  0  0
    2.6629   -2.8102   -1.0655 H   0  0  0  0  0  0  0  0  0  0  0  0
    4.3278   -2.3260   -0.8306 H   0  0  0  0  0  0  0  0  0  0  0  0
    2.3193   -4.9808   -2.6606 H   0  0  0  0  0  0  0  0  0  0  0  0
    2.7275   -5.5903   -5.0100 H   0  0  0  0  0  0  0  0  0  0  0  0
    4.5798   -4.5295   -6.2722 H   0  0  0  0  0  0  0  0  0  0  0  0
    6.0225   -2.8401   -5.1692 H   0  0  0  0  0  0  0  0  0  0  0  0
    5.6317   -2.2154   -2.8112 H   0  0  0  0  0  0  0  0  0  0  0  0
    6.0068   -4.0411    0.1062 H   0  0  0  0  0  0  0  0  0  0  0  0
    0.0022   -4.4511    1.3771 H   0  0  0  0  0  0  0  0  0  0  0  0
   -2.3280   -3.1656    2.7007 H   0  0  0  0  0  0  0  0  0  0  0  0
   -3.4011   -2.7301    0.4827 H   0  0  0  0  0  0  0  0  0  0  0  0
   -1.9992   -1.7609    0.8044 H   0  0  0  0  0  0  0  0  0  0  0  0
   -3.0783   -4.8716   -1.0472 H   0  0  0  0  0  0  0  0  0  0  0  0
   -2.1313   -5.5139   -3.2205 H   0  0  0  0  0  0  0  0  0  0  0  0
   -0.2673   -4.2054   -4.2134 H   0  0  0  0  0  0  0  0  0  0  0  0
    0.6520   -2.2527   -2.9974 H   0  0  0  0  0  0  0  0  0  0  0  0
   -0.2566   -1.6137   -0.8053 H   0  0  0  0  0  0  0  0  0  0  0  0
   -4.3933   -4.0530    2.0844 H   0  0  0  0  0  0  0  0  0  0  0  0
   -4.3592   -6.7869    1.0217 H   0  0  0  0  0  0  0  0  0  0  0  0
   -5.0832   -6.7258    3.5891 H   0  0  0  0  0  0  0  0  0  0  0  0
   -6.4743   -5.8123    3.0431 H   0  0  0  0  0  0  0  0  0  0  0  0
   -4.6101   -8.9442    1.9329 H   0  0  0  0  0  0  0  0  0  0  0  0
   -5.7484  -11.0194    1.3254 H   0  0  0  0  0  0  0  0  0  0  0  0
   -7.8426  -12.3193    1.0280 H   0  0  0  0  0  0  0  0  0  0  0  0
  -10.2916  -12.4821    1.2209 H   0  0  0  0  0  0  0  0  0  0  0  0
  -11.6090  -10.5599    2.0727 H   0  0  0  0  0  0  0  0  0  0  0  0
  -10.4750   -8.4664    2.7152 H   0  0  0  0  0  0  0  0  0  0  0  0
   -8.3974   -7.1331    2.9202 H   0  0  0  0  0  0  0  0  0  0  0  0
   -7.1532   -6.7910    0.3276 H   0  0  0  0  0  0  0  0  0  0  0  0
   -6.9926   -4.6561   -1.7081 H   0  0  0  0  0  0  0  0  0  0  0  0
   -9.0952   -5.5722   -2.6597 H   0  0  0  0  0  0  0  0  0  0  0  0
   -7.6964   -6.6245   -2.7301 H   0  0  0  0  0  0  0  0  0  0  0  0
   -9.5542   -7.9831   -2.2934 H   0  0  0  0  0  0  0  0  0  0  0  0
   -8.5598   -8.0016   -0.8544 H   0  0  0  0  0  0  0  0  0  0  0  0
  -10.1713   -6.5561    0.3280 H   0  0  0  0  0  0  0  0  0  0  0  0
  -10.9706   -7.9409   -0.3453 H   0  0  0  0  0  0  0  0  0  0  0  0
  -11.8865   -6.7714   -2.0595 H   0  0  0  0  0  0  0  0  0  0  0  0
  -11.0466   -4.7066    0.5415 H   0  0  0  0  0  0  0  0  0  0  0  0
  -13.8759   -4.3548   -1.1620 H   0  0  0  0  0  0  0  0  0  0  0  0
  -13.1936   -5.0116   -2.5219 H   0  0  0  0  0  0  0  0  0  0  0  0
   -8.2035   -2.8439   -1.7244 H   0  0  0  0  0  0  0  0  0  0  0  0
  -10.3685   -2.3481    0.1428 H   0  0  0  0  0  0  0  0  0  0  0  0
   -7.7486   -0.7632    0.3910 H   0  0  0  0  0  0  0  0  0  0  0  0
   -7.9400   -2.2049    1.3533 H   0  0  0  0  0  0  0  0  0  0  0  0
   -8.3989   -0.0418    2.5015 H   0  0  0  0  0  0  0  0  0  0  0  0
   -9.8244    0.1934    1.5224 H   0  0  0  0  0  0  0  0  0  0  0  0
  -10.2554   -0.7221    3.8166 H   0  0  0  0  0  0  0  0  0  0  0  0
   -9.3033   -2.1632    3.4325 H   0  0  0  0  0  0  0  0  0  0  0  0
  -11.5844   -1.5554    1.6570 H   0  0  0  0  0  0  0  0  0  0  0  0
  -12.6688   -3.5515    4.7615 H   0  0  0  0  0  0  0  0  0  0  0  0
  -13.4824   -4.0305    2.8507 H   0  0  0  0  0  0  0  0  0  0  0  0
  -12.6581   -3.5626    1.5146 H   0  0  0  0  0  0  0  0  0  0  0  0
  -11.1615    0.0130   -0.1805 H   0  0  0  0  0  0  0  0  0  0  0  0
  -10.3035    0.9901   -2.8782 H   0  0  0  0  0  0  0  0  0  0  0  0
  -12.6736    1.8993   -3.1214 H   0  0  0  0  0  0  0  0  0  0  0  0
  -12.3857    0.1826   -3.3482 H   0  0  0  0  0  0  0  0  0  0  0  0
  -13.2539   -0.3501   -1.1228 H   0  0  0  0  0  0  0  0  0  0  0  0
  -14.4261    0.3986   -2.1659 H   0  0  0  0  0  0  0  0  0  0  0  0
  -14.5288    2.4048   -1.0004 H   0  0  0  0  0  0  0  0  0  0  0  0
  -12.9522    2.2434   -0.2453 H   0  0  0  0  0  0  0  0  0  0  0  0
  -15.2487    1.5696    0.9493 H   0  0  0  0  0  0  0  0  0  0  0  0
  -12.1306    0.0689    2.4605 H   0  0  0  0  0  0  0  0  0  0  0  0
  -15.3133   -0.2933    2.3297 H   0  0  0  0  0  0  0  0  0  0  0  0
  -13.9440   -0.5854    3.2056 H   0  0  0  0  0  0  0  0  0  0  0  0
   -8.9674    1.6079   -0.5257 H   0  0  0  0  0  0  0  0  0  0  0  0
   -8.8958    4.4343   -1.0593 H   0  0  0  0  0  0  0  0  0  0  0  0
   -9.0962    3.7659    1.9102 H   0  0  0  0  0  0  0  0  0  0  0  0
  -10.5935    3.9564    1.0216 H   0  0  0  0  0  0  0  0  0  0  0  0
   -8.4077    6.0930    1.0276 H   0  0  0  0  0  0  0  0  0  0  0  0
   -9.6820    6.0185    2.2252 H   0  0  0  0  0  0  0  0  0  0  0  0
  -10.2217    6.2133   -0.7803 H   0  0  0  0  0  0  0  0  0  0  0  0
  -11.4299    6.2615    0.5042 H   0  0  0  0  0  0  0  0  0  0  0  0
   -9.3488    8.2109    0.8770 H   0  0  0  0  0  0  0  0  0  0  0  0
  -11.7302    7.7329   -1.5140 H   0  0  0  0  0  0  0  0  0  0  0  0
  -10.1971   10.3975    0.6117 H   0  0  0  0  0  0  0  0  0  0  0  0
  -10.3728   10.7017   -0.9994 H   0  0  0  0  0  0  0  0  0  0  0  0
   -6.7218    5.0430   -1.0280 H   0  0  0  0  0  0  0  0  0  0  0  0
   -4.9252    3.9535    1.0655 H   0  0  0  0  0  0  0  0  0  0  0  0
   -5.8770    6.4631    0.9104 H   0  0  0  0  0  0  0  0  0  0  0  0
   -3.5917    8.1167   -0.1006 H   0  0  0  0  0  0  0  0  0  0  0  0
   -6.5026    8.9433    0.4537 H   0  0  0  0  0  0  0  0  0  0  0  0
   -5.1912   10.0955    0.4659 H   0  0  0  0  0  0  0  0  0  0  0  0
   -6.3386   10.1240   -1.6891 H   0  0  0  0  0  0  0  0  0  0  0  0
   -4.6418    9.7043   -1.8500 H   0  0  0  0  0  0  0  0  0  0  0  0
   -5.9594    8.3712   -3.3724 H   0  0  0  0  0  0  0  0  0  0  0  0
   -5.1931    7.3341   -2.2038 H   0  0  0  0  0  0  0  0  0  0  0  0
   -7.5212    7.4698   -0.8996 H   0  0  0  0  0  0  0  0  0  0  0  0
   -8.1271    8.1691   -2.4018 H   0  0  0  0  0  0  0  0  0  0  0  0
   -7.1471    6.1686   -3.4839 H   0  0  0  0  0  0  0  0  0  0  0  0
   -8.4967    5.9899   -2.6276 H   0  0  0  0  0  0  0  0  0  0  0  0
   -3.0258    9.0193    3.1453 H   0  0  0  0  0  0  0  0  0  0  0  0
   -4.3040    3.5600   -1.9235 H   0  0  0  0  0  0  0  0  0  0  0  0
   -4.7691    2.2581   -0.8208 H   0  0  0  0  0  0  0  0  0  0  0  0
   -2.2777    3.8785   -0.7575 H   0  0  0  0  0  0  0  0  0  0  0  0
  1  2  1  0
  2  3  1  0
  3  4  1  0
  4  5  2  0
  4  6  1  0
  6  7  1  0
  7  8  1  0
  8  9  1  0
  9 10  1  0
 10 11  1  0
 11 12  2  3
 11 13  1  0
  6 14  1  0
 14 15  1  0
 15 16  2  0
 15 17  1  0
 17 18  1  0
 18 19  1  0
 19 20  1  0
 20 21  2  0
 21 22  1  0
 22 23  2  0
 23 24  1  0
 24 25  2  0
 25 26  1  0
 26 27  2  0
 27 28  1  0
 17 29  1  0
 29 30  1  0
 30 31  2  0
 30 32  1  0
 32 33  1  0
 33 34  1  0
 34 35  1  0
 35 36  1  0
 36 37  1  0
 37 38  1  0
 38 39  2  0
 38 40  1  0
 40 41  1  0
 41 42  1  0
 41 43  1  0
 40 44  1  0
 44 45  1  0
 45 46  2  0
 45 47  1  0
 47 48  1  0
 48 49  1  0
 49 50  1  0
 50 51  2  0
 51 52  1  0
 52 53  1  0
 52 54  2  0
 54 55  1  0
 47 56  1  0
 56 57  1  0
 57 58  2  0
 57 59  1  0
 59 60  1  0
 60 61  1  0
 61 62  2  0
 62 63  1  0
 63 64  2  0
 64 65  1  0
 65 66  2  0
 59 67  1  0
 67 68  1  0
 68 69  2  0
 68 70  1  0
 70 71  1  0
 71 72  2  0
 72 73  1  0
 73 74  2  0
 74 75  1  0
 74 76  1  0
 76 77  2  0
 76 78  1  0
 78 79  1  0
 79 80  1  0
 80 81  1  0
 81 82  1  0
 82 83  2  0
 82 84  1  0
 84 85  1  0
 85 86  1  0
 86 87  2  0
 87 88  1  0
 88 89  2  0
 89 90  1  0
 90 91  2  0
 84 92  1  0
 92 93  1  0
 93 94  2  0
 80 95  1  0
 95 96  2  0
 95 97  1  0
 97 98  1  0
 98 99  1  0
 99100  1  0
100101  2  0
101102  1  0
102103  2  0
103104  1  0
104105  2  0
 98106  1  0
106107  2  0
106108  1  0
108109  1  0
109110  1  0
110111  1  0
111112  1  0
112113  2  0
113114  1  0
114115  2  0
115116  1  0
116117  2  0
117118  1  0
118119  2  0
119120  1  0
109121  1  0
121122  2  0
121123  1  0
123124  1  0
124125  1  0
125126  1  0
126127  1  0
127128  1  0
128129  1  0
129130  2  3
129131  1  0
124132  1  0
132133  2  0
132134  1  0
134135  1  0
135136  1  0
136137  1  0
137138  1  0
138139  1  0
139140  1  0
140141  2  3
140142  1  0
135143  1  0
143144  2  0
143145  1  0
145146  1  0
146147  1  0
147148  1  0
148149  1  0
149150  1  0
150151  1  0
151152  2  3
151153  1  0
146154  1  0
154155  2  0
154156  1  0
156157  1  0
157158  1  0
158159  1  0
159160  1  0
160161  1  0
161162  1  0
162163  2  3
162164  1  0
157165  1  0
165166  2  0
165167  1  0
167168  1  0
168169  1  0
169170  2  0
169171  1  0
171172  1  0
172173  1  0
173174  1  0
174175  1  0
175176  1  0
176177  1  0
172178  1  0
178179  2  0
178180  1  0
168181  1  0
181182  1  0
182183  1  0
183184  2  0
 93  2  1  0
105100  1  0
120111  2  0
 28 19  2  0
 37 32  1  0
 55 49  2  0
 66 61  1  0
 75 70  2  0
 91 86  1  0
119114  1  0
 27 22  1  0
183 72  1  0
  1185  1  0
  1186  1  0
  1187  1  0
  2188  1  6
  3189  1  0
  6190  1  6
  7191  1  0
  7192  1  0
  8193  1  0
  8194  1  0
  9195  1  0
  9196  1  0
 10197  1  0
 12198  1  0
 13199  1  0
 13200  1  0
 14201  1  0
 17202  1  6
 18203  1  0
 18204  1  0
 20205  1  0
 21206  1  0
 23207  1  0
 24208  1  0
 25209  1  0
 26210  1  0
 28211  1  0
 29212  1  0
 32213  1  1
 33214  1  0
 33215  1  0
 34216  1  0
 34217  1  0
 35218  1  0
 35219  1  0
 36220  1  0
 36221  1  0
 40222  1  1
 41223  1  6
 42224  1  0
 42225  1  0
 42226  1  0
 43227  1  0
 44228  1  0
 47229  1  6
 48230  1  0
 48231  1  0
 50232  1  0
 51233  1  0
 54234  1  0
 55235  1  0
 56236  1  0
 59237  1  1
 60238  1  0
 60239  1  0
 62240  1  0
 63241  1  0
 64242  1  0
 65243  1  0
 66244  1  0
 67245  1  0
 71246  1  0
 73247  1  0
 75248  1  0
 78249  1  0
 79250  1  0
 79251  1  0
 80252  1  1
 81253  1  0
 84254  1  6
 85255  1  0
 85256  1  0
 87257  1  0
 88258  1  0
 89259  1  0
 90260  1  0
 91261  1  0
 92262  1  0
 97263  1  0
 98264  1  1
 99265  1  0
 99266  1  0
101267  1  0
102268  1  0
103269  1  0
104270  1  0
105271  1  0
108272  1  0
109273  1  6
110274  1  0
110275  1  0
112276  1  0
113277  1  0
115278  1  0
116279  1  0
117280  1  0
118281  1  0
120282  1  0
123283  1  0
124284  1  6
125285  1  0
125286  1  0
126287  1  0
126288  1  0
127289  1  0
127290  1  0
128291  1  0
130292  1  0
131293  1  0
131294  1  0
134295  1  0
135296  1  1
136297  1  0
136298  1  0
137299  1  0
137300  1  0
138301  1  0
138302  1  0
139303  1  0
141304  1  0
142305  1  0
142306  1  0
145307  1  0
146308  1  6
147309  1  0
147310  1  0
148311  1  0
148312  1  0
149313  1  0
149314  1  0
150315  1  0
152316  1  0
153317  1  0
153318  1  0
156319  1  0
157320  1  6
158321  1  0
158322  1  0
159323  1  0
159324  1  0
160325  1  0
160326  1  0
161327  1  0
163328  1  0
164329  1  0
164330  1  0
167331  1  0
168332  1  1
171333  1  0
172334  1  6
173335  1  0
173336  1  0
174337  1  0
174338  1  0
175339  1  0
175340  1  0
176341  1  0
176342  1  0
177343  1  0
177344  1  0
180345  1  0
181346  1  0
181347  1  0
182348  1  0
M  END
$$$$
