
     RDKit          3D

 45 47  0  0  0  0  0  0  0  0999 V2000
    0.6563   -0.9226   -2.5931 O   0  0  0  0  0  0  0  0  0  0  0  0
    0.8143   -1.2146   -1.4136 C   0  0  0  0  0  0  0  0  0  0  0  0
    1.8406   -0.5636   -0.5122 C   0  0  0  0  0  0  0  0  0  0  0  0
    2.6229    0.5237   -1.2456 C   0  0  0  0  0  0  0  0  0  0  0  0
    3.5458    1.2790   -0.3110 C   0  0  0  0  0  0  0  0  0  0  0  0
    4.8694    0.8542   -0.0847 C   0  0  0  0  0  0  0  0  0  0  0  0
    5.5250   -0.5554   -0.8445 Cl  0  0  0  0  0  0  0  0  0  0  0  0
    5.7152    1.5526    0.7855 C   0  0  0  0  0  0  0  0  0  0  0  0
    5.2566    2.6826    1.4557 C   0  0  0  0  0  0  0  0  0  0  0  0
    3.9473    3.1108    1.2615 C   0  0  0  0  0  0  0  0  0  0  0  0
    3.0985    2.4158    0.3920 C   0  0  0  0  0  0  0  0  0  0  0  0
    1.4788    3.0095    0.2423 Cl  0  0  0  0  0  0  0  0  0  0  0  0
    0.0491   -2.1491   -0.7672 N   0  0  0  0  0  0  0  0  0  0  0  0
   -1.0490   -2.8792   -1.4104 C   0  0  2  0  0  0  0  0  0  0  0  0
   -2.2061   -1.9800   -1.8835 C   0  0  0  0  0  0  0  0  0  0  0  0
   -2.6791   -1.0157   -0.8367 C   0  0  0  0  0  0  0  0  0  0  0  0
   -3.5826   -1.1644    0.1953 C   0  0  0  0  0  0  0  0  0  0  0  0
   -3.6331    0.0620    0.9132 C   0  0  0  0  0  0  0  0  0  0  0  0
   -4.3439    0.5037    2.0477 C   0  0  0  0  0  0  0  0  0  0  0  0
   -4.1494    1.8106    2.5094 C   0  0  0  0  0  0  0  0  0  0  0  0
   -3.2669    2.6598    1.8536 C   0  0  0  0  0  0  0  0  0  0  0  0
   -3.0982    3.9064    2.3165 F   0  0  0  0  0  0  0  0  0  0  0  0
   -2.5520    2.2550    0.7274 C   0  0  0  0  0  0  0  0  0  0  0  0
   -2.7574    0.9452    0.2794 C   0  0  0  0  0  0  0  0  0  0  0  0
   -2.2090    0.2758   -0.7897 N   0  0  0  0  0  0  0  0  0  0  0  0
   -1.5848   -3.9674   -0.4755 C   0  0  0  0  0  0  0  0  0  0  0  0
   -2.4899   -4.7514   -0.7146 O   0  0  0  0  0  0  0  0  0  0  0  0
   -0.9464   -4.0215    0.7190 O   0  0  0  0  0  0  0  0  0  0  0  0
    1.3126   -0.1412    0.3514 H   0  0  0  0  0  0  0  0  0  0  0  0
    2.5188   -1.3410   -0.1415 H   0  0  0  0  0  0  0  0  0  0  0  0
    3.1883    0.0876   -2.0781 H   0  0  0  0  0  0  0  0  0  0  0  0
    1.9390    1.2224   -1.7428 H   0  0  0  0  0  0  0  0  0  0  0  0
    6.7367    1.2148    0.9468 H   0  0  0  0  0  0  0  0  0  0  0  0
    5.9149    3.2232    2.1313 H   0  0  0  0  0  0  0  0  0  0  0  0
    3.5882    3.9888    1.7943 H   0  0  0  0  0  0  0  0  0  0  0  0
    0.1706   -2.3171    0.2274 H   0  0  0  0  0  0  0  0  0  0  0  0
   -0.6154   -3.3968   -2.2749 H   0  0  0  0  0  0  0  0  0  0  0  0
   -3.0549   -2.5944   -2.2096 H   0  0  0  0  0  0  0  0  0  0  0  0
   -1.8905   -1.4137   -2.7688 H   0  0  0  0  0  0  0  0  0  0  0  0
   -4.1435   -2.0629    0.4204 H   0  0  0  0  0  0  0  0  0  0  0  0
   -5.0345   -0.1605    2.5587 H   0  0  0  0  0  0  0  0  0  0  0  0
   -4.6870    2.1697    3.3813 H   0  0  0  0  0  0  0  0  0  0  0  0
   -1.8718    2.9366    0.2303 H   0  0  0  0  0  0  0  0  0  0  0  0
   -1.5396    0.6729   -1.4376 H   0  0  0  0  0  0  0  0  0  0  0  0
   -1.4036   -4.7504    1.1910 H   0  0  0  0  0  0  0  0  0  0  0  0
  1  2  2  0
  2  3  1  0
  3  4  1  0
  4  5  1  0
  5  6  2  0
  6  7  1  0
  6  8  1  0
  8  9  2  0
  9 10  1  0
 10 11  2  0
 11 12  1  0
  2 13  1  0
 13 14  1  0
 14 15  1  0
 15 16  1  0
 16 17  2  0
 17 18  1  0
 18 19  2  0
 19 20  1  0
 20 21  2  0
 21 22  1  0
 21 23  1  0
 23 24  2  0
 24 25  1  0
 14 26  1  0
 26 27  2  0
 26 28  1  0
 11  5  1  0
 25 16  1  0
 24 18  1  0
  3 29  1  0
  3 30  1  0
  4 31  1  0
  4 32  1  0
  8 33  1  0
  9 34  1  0
 10 35  1  0
 13 36  1  0
 14 37  1  6
 15 38  1  0
 15 39  1  0
 17 40  1  0
 19 41  1  0
 20 42  1  0
 23 43  1  0
 25 44  1  0
 28 45  1  0
M  END
$$$$
