
     RDKit          3D

 44 47  0  0  0  0  0  0  0  0999 V2000
    0.2414    3.7045   -3.7454 O   0  0  0  0  0  0  0  0  0  0  0  0
   -0.2657    2.9937   -2.8884 C   0  0  0  0  0  0  0  0  0  0  0  0
   -1.5485    3.2017   -2.5299 O   0  0  0  0  0  0  0  0  0  0  0  0
    0.4383    1.8359   -2.1630 C   0  0  0  0  0  0  0  0  0  0  0  0
    1.6859    2.4438   -1.4826 C   0  0  0  0  0  0  0  0  0  0  0  0
    2.4965    1.4701   -0.6777 C   0  0  0  0  0  0  0  0  0  0  0  0
    3.8237    1.1026   -0.7651 C   0  0  0  0  0  0  0  0  0  0  0  0
    4.0773    0.1297    0.2412 C   0  0  0  0  0  0  0  0  0  0  0  0
    5.2162   -0.6062    0.6268 C   0  0  0  0  0  0  0  0  0  0  0  0
    5.1157   -1.5141    1.6873 C   0  0  0  0  0  0  0  0  0  0  0  0
    3.9063   -1.6850    2.3496 C   0  0  0  0  0  0  0  0  0  0  0  0
    3.8366   -2.5616    3.3613 F   0  0  0  0  0  0  0  0  0  0  0  0
    2.7627   -0.9715    1.9941 C   0  0  0  0  0  0  0  0  0  0  0  0
    2.8810   -0.0669    0.9330 C   0  0  0  0  0  0  0  0  0  0  0  0
    1.9458    0.7665    0.3678 N   0  0  0  0  0  0  0  0  0  0  0  0
    0.7900    0.7564   -3.1900 C   0  0  0  0  0  0  0  0  0  0  0  0
   -0.6724   -0.3085   -3.2001 S   0  0  0  0  0  0  0  0  0  0  0  0
   -1.0800    0.2245   -1.5914 C   0  0  0  0  0  0  0  0  0  0  0  0
   -2.0752   -0.6015   -0.8848 C   0  0  0  0  0  0  0  0  0  0  0  0
   -2.5499   -0.1912    0.3006 C   0  0  0  0  0  0  0  0  0  0  0  0
   -3.5098   -0.9937    1.0762 C   0  0  0  0  0  0  0  0  0  0  0  0
   -3.0786   -1.7191    2.2035 C   0  0  0  0  0  0  0  0  0  0  0  0
   -1.4253   -1.7008    2.7233 Cl  0  0  0  0  0  0  0  0  0  0  0  0
   -3.9766   -2.4907    2.9498 C   0  0  0  0  0  0  0  0  0  0  0  0
   -5.3198   -2.5497    2.5864 C   0  0  0  0  0  0  0  0  0  0  0  0
   -5.7669   -1.8347    1.4776 C   0  0  0  0  0  0  0  0  0  0  0  0
   -4.8720   -1.0615    0.7282 C   0  0  0  0  0  0  0  0  0  0  0  0
   -5.5194   -0.1906   -0.6218 Cl  0  0  0  0  0  0  0  0  0  0  0  0
   -0.4599    1.2488   -1.1092 N   0  0  0  0  0  0  0  0  0  0  0  0
   -1.8412    3.9592   -3.0767 H   0  0  0  0  0  0  0  0  0  0  0  0
    1.3799    3.2609   -0.8145 H   0  0  0  0  0  0  0  0  0  0  0  0
    2.3366    2.9001   -2.2408 H   0  0  0  0  0  0  0  0  0  0  0  0
    4.5405    1.4862   -1.4798 H   0  0  0  0  0  0  0  0  0  0  0  0
    6.1606   -0.4727    0.1077 H   0  0  0  0  0  0  0  0  0  0  0  0
    5.9808   -2.0907    1.9991 H   0  0  0  0  0  0  0  0  0  0  0  0
    1.8305   -1.1196    2.5260 H   0  0  0  0  0  0  0  0  0  0  0  0
    0.9715    0.8253    0.6420 H   0  0  0  0  0  0  0  0  0  0  0  0
    0.9887    1.1474   -4.1921 H   0  0  0  0  0  0  0  0  0  0  0  0
    1.6402    0.1416   -2.8820 H   0  0  0  0  0  0  0  0  0  0  0  0
   -2.3930   -1.5308   -1.3441 H   0  0  0  0  0  0  0  0  0  0  0  0
   -2.2259    0.7399    0.7601 H   0  0  0  0  0  0  0  0  0  0  0  0
   -3.6317   -3.0489    3.8177 H   0  0  0  0  0  0  0  0  0  0  0  0
   -6.0170   -3.1491    3.1672 H   0  0  0  0  0  0  0  0  0  0  0  0
   -6.8181   -1.8799    1.2007 H   0  0  0  0  0  0  0  0  0  0  0  0
  1  2  2  0
  2  3  1  0
  2  4  1  0
  4  5  1  0
  5  6  1  0
  6  7  2  0
  7  8  1  0
  8  9  2  0
  9 10  1  0
 10 11  2  0
 11 12  1  0
 11 13  1  0
 13 14  2  0
 14 15  1  0
  4 16  1  0
 16 17  1  0
 17 18  1  0
 18 19  1  0
 19 20  2  0
 20 21  1  0
 21 22  2  0
 22 23  1  0
 22 24  1  0
 24 25  2  0
 25 26  1  0
 26 27  2  0
 27 28  1  0
 18 29  2  0
 29  4  1  0
 15  6  1  0
 27 21  1  0
 14  8  1  0
  3 30  1  0
  5 31  1  0
  5 32  1  0
  7 33  1  0
  9 34  1  0
 10 35  1  0
 13 36  1  0
 15 37  1  0
 16 38  1  0
 16 39  1  0
 19 40  1  0
 20 41  1  0
 24 42  1  0
 25 43  1  0
 26 44  1  0
M  END
$$$$
