
     RDKit          3D

343353  0  0  0  0  0  0  0  0999 V2000
    6.5097   -6.8753   -0.3415 C   0  0  0  0  0  0  0  0  0  0  0  0
    5.9573   -6.1782   -1.5826 C   0  0  2  0  0  0  0  0  0  0  0  0
    6.5785   -4.8591   -1.7304 N   0  0  0  0  0  0  0  0  0  0  0  0
    7.0235   -4.3773   -2.9459 C   0  0  0  0  0  0  0  0  0  0  0  0
    6.7845   -4.9383   -4.0102 O   0  0  0  0  0  0  0  0  0  0  0  0
    7.7609   -3.0271   -2.8323 C   0  0  2  0  0  0  0  0  0  0  0  0
    8.2966   -2.5052   -4.1759 C   0  0  0  0  0  0  0  0  0  0  0  0
    9.7080   -2.9285   -4.6329 C   0  0  0  0  0  0  0  0  0  0  0  0
   10.0105   -4.4281   -4.6289 C   0  0  0  0  0  0  0  0  0  0  0  0
   10.5468   -4.8185   -3.3333 N   0  0  0  0  0  0  0  0  0  0  0  0
   10.3534   -6.0114   -2.7345 C   0  0  0  0  0  0  0  0  0  0  0  0
    9.3747   -6.8234   -2.8713 N   0  0  0  0  0  0  0  0  0  0  0  0
   11.2934   -6.2729   -1.8057 N   0  0  0  0  0  0  0  0  0  0  0  0
    8.7984   -3.1367   -1.8151 N   0  0  0  0  0  0  0  0  0  0  0  0
    9.1950   -2.0777   -1.0366 C   0  0  0  0  0  0  0  0  0  0  0  0
    8.5459   -1.0407   -0.9462 O   0  0  0  0  0  0  0  0  0  0  0  0
   10.4857   -2.3393   -0.2376 C   0  0  2  0  0  0  0  0  0  0  0  0
   10.1960   -3.3236    0.9114 C   0  0  0  0  0  0  0  0  0  0  0  0
   11.3642   -3.4813    1.8598 C   0  0  0  0  0  0  0  0  0  0  0  0
   11.3464   -2.8471    3.1071 C   0  0  0  0  0  0  0  0  0  0  0  0
   12.4501   -2.9216    3.9574 C   0  0  0  0  0  0  0  0  0  0  0  0
   13.5983   -3.6317    3.5794 C   0  0  0  0  0  0  0  0  0  0  0  0
   14.7236   -3.6978    4.4186 C   0  0  0  0  0  0  0  0  0  0  0  0
   15.8612   -4.4077    4.0324 C   0  0  0  0  0  0  0  0  0  0  0  0
   15.8871   -5.0601    2.8034 C   0  0  0  0  0  0  0  0  0  0  0  0
   14.7777   -5.0011    1.9572 C   0  0  0  0  0  0  0  0  0  0  0  0
   13.6246   -4.2896    2.3291 C   0  0  0  0  0  0  0  0  0  0  0  0
   12.5018   -4.2093    1.4852 C   0  0  0  0  0  0  0  0  0  0  0  0
   11.0032   -1.0691    0.2634 N   0  0  0  0  0  0  0  0  0  0  0  0
   11.8609   -0.2967   -0.4969 C   0  0  0  0  0  0  0  0  0  0  0  0
   12.2135   -0.6173   -1.6293 O   0  0  0  0  0  0  0  0  0  0  0  0
   12.4252    0.9174    0.2793 C   0  0  1  0  0  0  0  0  0  0  0  0
   13.7708    0.5427    0.9253 C   0  0  0  0  0  0  0  0  0  0  0  0
   14.9333    0.5714   -0.0706 C   0  0  0  0  0  0  0  0  0  0  0  0
   14.9736    1.8928   -0.8378 C   0  0  0  0  0  0  0  0  0  0  0  0
   13.6317    2.1820   -1.4983 C   0  0  0  0  0  0  0  0  0  0  0  0
   12.5565    2.1562   -0.5024 N   0  0  0  0  0  0  0  0  0  0  0  0
   11.6638    3.1916   -0.2440 C   0  0  0  0  0  0  0  0  0  0  0  0
   10.6614    3.0212    0.4509 O   0  0  0  0  0  0  0  0  0  0  0  0
   11.9824    4.5519   -0.8482 C   0  0  0  0  0  0  0  0  0  0  0  0
   11.3090    5.7046   -0.0850 C   0  0  1  0  0  0  0  0  0  0  0  0
   12.0702    7.0456   -0.2245 C   0  0  0  0  0  0  0  0  0  0  0  0
   12.0357    7.6965   -1.6064 C   0  0  0  0  0  0  0  0  0  0  0  0
   12.9418    7.0223   -2.5932 C   0  0  0  0  0  0  0  0  0  0  0  0
   12.5915    6.3105   -3.5210 O   0  0  0  0  0  0  0  0  0  0  0  0
   14.2444    7.2543   -2.3565 O   0  0  0  0  0  0  0  0  0  0  0  0
    9.9037    5.8678   -0.4458 N   0  0  0  0  0  0  0  0  0  0  0  0
    9.0043    6.4403    0.4312 C   0  0  0  0  0  0  0  0  0  0  0  0
    9.3199    6.8100    1.5606 O   0  0  0  0  0  0  0  0  0  0  0  0
    7.5495    6.5071   -0.0689 C   0  0  2  0  0  0  0  0  0  0  0  0
    7.0545    7.9608    0.0425 C   0  0  0  0  0  0  0  0  0  0  0  0
    7.8429    8.9159   -0.8286 C   0  0  0  0  0  0  0  0  0  0  0  0
    8.8140    9.7538   -0.2583 C   0  0  0  0  0  0  0  0  0  0  0  0
    9.5587   10.6192   -1.0606 C   0  0  0  0  0  0  0  0  0  0  0  0
    9.3357   10.6420   -2.4310 C   0  0  0  0  0  0  0  0  0  0  0  0
   10.0580   11.4712   -3.1992 F   0  0  0  0  0  0  0  0  0  0  0  0
    8.3815    9.8196   -3.0151 C   0  0  0  0  0  0  0  0  0  0  0  0
    7.6316    8.9545   -2.2155 C   0  0  0  0  0  0  0  0  0  0  0  0
    6.8178    5.5820    0.7971 N   0  0  0  0  0  0  0  0  0  0  0  0
    5.4697    5.3164    0.6757 C   0  0  0  0  0  0  0  0  0  0  0  0
    4.7481    5.8849   -0.1396 O   0  0  0  0  0  0  0  0  0  0  0  0
    4.9604    4.2624    1.6798 C   0  0  1  0  0  0  0  0  0  0  0  0
    5.1399    4.7179    3.1453 C   0  0  0  0  0  0  0  0  0  0  0  0
    4.1404    5.7565    3.6077 C   0  0  0  0  0  0  0  0  0  0  0  0
    2.9786    5.3666    4.2933 C   0  0  0  0  0  0  0  0  0  0  0  0
    2.0330    6.3149    4.6849 C   0  0  0  0  0  0  0  0  0  0  0  0
    2.2400    7.6632    4.4021 C   0  0  0  0  0  0  0  0  0  0  0  0
    3.3925    8.0628    3.7257 C   0  0  0  0  0  0  0  0  0  0  0  0
    4.3381    7.1149    3.3304 C   0  0  0  0  0  0  0  0  0  0  0  0
    3.5786    3.8651    1.4208 N   0  0  0  0  0  0  0  0  0  0  0  0
    3.2614    2.6912    0.7864 C   0  0  0  0  0  0  0  0  0  0  0  0
    4.0737    1.9583    0.2356 O   0  0  0  0  0  0  0  0  0  0  0  0
    1.8547    2.2536    0.9385 C   0  0  0  0  0  0  0  0  0  0  0  0
    0.7714    3.1270    0.8342 C   0  0  0  0  0  0  0  0  0  0  0  0
   -0.5040    2.6656    1.1829 C   0  0  0  0  0  0  0  0  0  0  0  0
   -0.7085    1.3515    1.6117 C   0  0  0  0  0  0  0  0  0  0  0  0
    0.3793    0.4711    1.6677 C   0  0  0  0  0  0  0  0  0  0  0  0
    1.6597    0.9250    1.3321 C   0  0  0  0  0  0  0  0  0  0  0  0
    0.1803   -0.8961    2.2155 C   0  0  0  0  0  0  0  0  0  0  0  0
   -0.7412   -1.0897    3.0014 O   0  0  0  0  0  0  0  0  0  0  0  0
    1.0874   -1.8556    1.8257 N   0  0  0  0  0  0  0  0  0  0  0  0
    1.1682   -3.1606    2.4653 C   0  0  0  0  0  0  0  0  0  0  0  0
    0.5764   -4.3195    1.6467 C   0  0  2  0  0  0  0  0  0  0  0  0
    0.9251   -4.3923    0.2126 N   0  0  0  0  0  0  0  0  0  0  0  0
    2.2101   -4.2223   -0.2599 C   0  0  0  0  0  0  0  0  0  0  0  0
    3.0982   -3.6616    0.3771 O   0  0  0  0  0  0  0  0  0  0  0  0
    2.4171   -4.7126   -1.7128 C   0  0  1  0  0  0  0  0  0  0  0  0
    1.8723   -3.6813   -2.6892 C   0  0  0  0  0  0  0  0  0  0  0  0
    3.8371   -4.9470   -1.9353 N   0  0  0  0  0  0  0  0  0  0  0  0
    4.4136   -6.1264   -1.5036 C   0  0  0  0  0  0  0  0  0  0  0  0
    3.7329   -7.0877   -1.1455 O   0  0  0  0  0  0  0  0  0  0  0  0
   -0.9490   -4.2666    1.7807 C   0  0  0  0  0  0  0  0  0  0  0  0
   -1.5518   -4.7750    2.7247 O   0  0  0  0  0  0  0  0  0  0  0  0
   -1.5695   -3.5011    0.8142 N   0  0  0  0  0  0  0  0  0  0  0  0
   -3.0164   -3.3960    0.7722 C   0  0  1  0  0  0  0  0  0  0  0  0
   -3.5108   -2.1346    0.0413 C   0  0  0  0  0  0  0  0  0  0  0  0
   -2.9455   -1.9223   -1.3493 C   0  0  0  0  0  0  0  0  0  0  0  0
   -1.8809   -1.0336   -1.5582 C   0  0  0  0  0  0  0  0  0  0  0  0
   -1.3529   -0.8397   -2.8355 C   0  0  0  0  0  0  0  0  0  0  0  0
   -1.8816   -1.5370   -3.9209 C   0  0  0  0  0  0  0  0  0  0  0  0
   -2.9381   -2.4222   -3.7273 C   0  0  0  0  0  0  0  0  0  0  0  0
   -3.4711   -2.6114   -2.4513 C   0  0  0  0  0  0  0  0  0  0  0  0
   -3.5880   -4.6791    0.1423 C   0  0  0  0  0  0  0  0  0  0  0  0
   -2.9964   -5.3354   -0.7125 O   0  0  0  0  0  0  0  0  0  0  0  0
   -4.8516   -5.0027    0.5861 N   0  0  0  0  0  0  0  0  0  0  0  0
   -5.5605   -6.1904    0.1149 C   0  0  1  0  0  0  0  0  0  0  0  0
   -4.9656   -7.4950    0.6726 C   0  0  0  0  0  0  0  0  0  0  0  0
   -5.0985   -8.6313   -0.3124 C   0  0  0  0  0  0  0  0  0  0  0  0
   -4.1804   -8.7519   -1.3608 C   0  0  0  0  0  0  0  0  0  0  0  0
   -4.3135   -9.7685   -2.3064 C   0  0  0  0  0  0  0  0  0  0  0  0
   -5.3770  -10.6810   -2.2327 C   0  0  0  0  0  0  0  0  0  0  0  0
   -5.5360  -11.6952   -3.1896 C   0  0  0  0  0  0  0  0  0  0  0  0
   -6.6059  -12.5876   -3.1134 C   0  0  0  0  0  0  0  0  0  0  0  0
   -7.5299  -12.4754   -2.0794 C   0  0  0  0  0  0  0  0  0  0  0  0
   -7.3775  -11.4781   -1.1143 C   0  0  0  0  0  0  0  0  0  0  0  0
   -6.3085  -10.5704   -1.1750 C   0  0  0  0  0  0  0  0  0  0  0  0
   -6.1503   -9.5505   -0.2196 C   0  0  0  0  0  0  0  0  0  0  0  0
   -6.9958   -6.0094    0.6289 C   0  0  0  0  0  0  0  0  0  0  0  0
   -7.2223   -5.5321    1.7415 O   0  0  0  0  0  0  0  0  0  0  0  0
   -7.9971   -6.3512   -0.2532 N   0  0  0  0  0  0  0  0  0  0  0  0
   -9.4077   -6.3792    0.1616 C   0  0  1  0  0  0  0  0  0  0  0  0
   -9.7073   -7.4916    1.1857 C   0  0  0  0  0  0  0  0  0  0  0  0
   -9.9096   -8.8729    0.5580 C   0  0  0  0  0  0  0  0  0  0  0  0
  -11.3314   -9.1063    0.0401 C   0  0  0  0  0  0  0  0  0  0  0  0
  -11.6336   -8.2948   -1.1283 N   0  0  0  0  0  0  0  0  0  0  0  0
  -11.1709   -8.6297   -2.3574 C   0  0  0  0  0  0  0  0  0  0  0  0
  -10.2975   -9.5383   -2.5861 N   0  0  0  0  0  0  0  0  0  0  0  0
  -11.7311   -7.8700   -3.3142 N   0  0  0  0  0  0  0  0  0  0  0  0
   -9.9605   -5.0185    0.6511 C   0  0  0  0  0  0  0  0  0  0  0  0
  -10.9663   -4.9200    1.3538 O   0  0  0  0  0  0  0  0  0  0  0  0
   -9.3379   -3.9007    0.1363 N   0  0  0  0  0  0  0  0  0  0  0  0
   -9.6430   -2.5787    0.6664 C   0  0  1  0  0  0  0  0  0  0  0  0
   -9.0626   -2.4231    2.0861 C   0  0  0  0  0  0  0  0  0  0  0  0
  -10.0012   -1.6896    3.0565 C   0  0  0  0  0  0  0  0  0  0  0  0
  -11.2256   -2.5189    3.4643 C   0  0  0  0  0  0  0  0  0  0  0  0
  -12.1311   -1.7203    4.2726 N   0  0  0  0  0  0  0  0  0  0  0  0
  -11.8932   -1.3299    5.5403 C   0  0  0  0  0  0  0  0  0  0  0  0
  -11.0189   -1.7680    6.3651 N   0  0  0  0  0  0  0  0  0  0  0  0
  -12.7356   -0.3511    5.9240 N   0  0  0  0  0  0  0  0  0  0  0  0
   -9.1615   -1.4901   -0.3289 C   0  0  0  0  0  0  0  0  0  0  0  0
   -8.8205   -1.7366   -1.4816 O   0  0  0  0  0  0  0  0  0  0  0  0
   -9.2660   -0.2030    0.1606 N   0  0  0  0  0  0  0  0  0  0  0  0
   -8.9386    0.9659   -0.6477 C   0  0  1  0  0  0  0  0  0  0  0  0
   -9.7295    2.1655   -0.0938 C   0  0  0  0  0  0  0  0  0  0  0  0
  -11.2508    1.9723   -0.0237 C   0  0  0  0  0  0  0  0  0  0  0  0
  -11.8969    1.6912   -1.3780 C   0  0  0  0  0  0  0  0  0  0  0  0
  -13.3384    1.5890   -1.2188 N   0  0  0  0  0  0  0  0  0  0  0  0
  -14.1816    1.3437   -2.2421 C   0  0  0  0  0  0  0  0  0  0  0  0
  -13.9560    1.4192   -3.5013 N   0  0  0  0  0  0  0  0  0  0  0  0
  -15.4048    0.9879   -1.8062 N   0  0  0  0  0  0  0  0  0  0  0  0
   -7.4157    1.2363   -0.5612 C   0  0  0  0  0  0  0  0  0  0  0  0
   -6.6562    0.5666    0.1401 O   0  0  0  0  0  0  0  0  0  0  0  0
   -6.9884    2.3253   -1.3006 N   0  0  0  0  0  0  0  0  0  0  0  0
   -5.6981    2.9476   -1.0066 C   0  0  1  0  0  0  0  0  0  0  0  0
   -5.2930    3.9177   -2.1313 C   0  0  0  0  0  0  0  0  0  0  0  0
   -5.9227    5.3241   -2.1331 C   0  0  0  0  0  0  0  0  0  0  0  0
   -7.4398    5.4142   -1.9926 C   0  0  0  0  0  0  0  0  0  0  0  0
   -8.1057    4.6043   -3.0042 N   0  0  0  0  0  0  0  0  0  0  0  0
   -9.4496    4.6311   -3.1591 C   0  0  0  0  0  0  0  0  0  0  0  0
  -10.3458    4.9674   -2.3141 N   0  0  0  0  0  0  0  0  0  0  0  0
   -9.8125    4.2049   -4.3814 N   0  0  0  0  0  0  0  0  0  0  0  0
   -5.7742    3.6259    0.3824 C   0  0  0  0  0  0  0  0  0  0  0  0
   -6.7702    3.5742    1.1066 O   0  0  0  0  0  0  0  0  0  0  0  0
   -4.6668    4.3380    0.7642 N   0  0  0  0  0  0  0  0  0  0  0  0
   -4.5128    4.8779    2.1217 C   0  0  2  0  0  0  0  0  0  0  0  0
   -5.3326    6.1854    2.3180 C   0  0  0  0  0  0  0  0  0  0  0  0
   -4.8717    7.1932    2.8440 O   0  0  0  0  0  0  0  0  0  0  0  0
   -6.6509    6.1092    1.9242 N   0  0  0  0  0  0  0  0  0  0  0  0
   -7.6377    7.1586    2.1770 C   0  0  1  0  0  0  0  0  0  0  0  0
   -7.3953    8.3968    1.3001 C   0  0  0  0  0  0  0  0  0  0  0  0
   -8.0811    9.6439    1.8718 C   0  0  0  0  0  0  0  0  0  0  0  0
   -7.8378   10.8696    0.9860 C   0  0  0  0  0  0  0  0  0  0  0  0
   -8.5229   12.1371    1.5046 C   0  0  0  0  0  0  0  0  0  0  0  0
   -7.9334   12.6328    2.7427 N   0  0  0  0  0  0  0  0  0  0  0  0
   -9.0170    6.5736    1.8628 C   0  0  0  0  0  0  0  0  0  0  0  0
   -9.2787    5.7764    0.9713 O   0  0  0  0  0  0  0  0  0  0  0  0
   -9.9912    7.0314    2.6709 O   0  0  0  0  0  0  0  0  0  0  0  0
   -3.0349    5.1533    2.4659 C   0  0  0  0  0  0  0  0  0  0  0  0
   -2.1502    3.9920    2.3389 N   0  0  0  0  0  0  0  0  0  0  0  0
   -1.6343    3.6114    1.1198 C   0  0  0  0  0  0  0  0  0  0  0  0
   -2.0311    4.0305    0.0398 O   0  0  0  0  0  0  0  0  0  0  0  0
    7.6001   -6.9569   -0.3913 H   0  0  0  0  0  0  0  0  0  0  0  0
    6.2614   -6.3135    0.5667 H   0  0  0  0  0  0  0  0  0  0  0  0
    6.0973   -7.8838   -0.2332 H   0  0  0  0  0  0  0  0  0  0  0  0
    6.1989   -6.7801   -2.4673 H   0  0  0  0  0  0  0  0  0  0  0  0
    6.8331   -4.3434   -0.8950 H   0  0  0  0  0  0  0  0  0  0  0  0
    7.0041   -2.3133   -2.4818 H   0  0  0  0  0  0  0  0  0  0  0  0
    7.5839   -2.7418   -4.9758 H   0  0  0  0  0  0  0  0  0  0  0  0
    8.3167   -1.4057   -4.1221 H   0  0  0  0  0  0  0  0  0  0  0  0
    9.8241   -2.5640   -5.6615 H   0  0  0  0  0  0  0  0  0  0  0  0
   10.4527   -2.3872   -4.0398 H   0  0  0  0  0  0  0  0  0  0  0  0
    9.1356   -5.0108   -4.9229 H   0  0  0  0  0  0  0  0  0  0  0  0
   10.7777   -4.6347   -5.3827 H   0  0  0  0  0  0  0  0  0  0  0  0
   11.4719   -4.4316   -3.1787 H   0  0  0  0  0  0  0  0  0  0  0  0
    8.7029   -6.4663   -3.5611 H   0  0  0  0  0  0  0  0  0  0  0  0
   11.0712   -7.1826   -1.3976 H   0  0  0  0  0  0  0  0  0  0  0  0
   12.2278   -6.3252   -2.1984 H   0  0  0  0  0  0  0  0  0  0  0  0
    9.4652   -3.8923   -1.9675 H   0  0  0  0  0  0  0  0  0  0  0  0
   11.2327   -2.7711   -0.9172 H   0  0  0  0  0  0  0  0  0  0  0  0
    9.3128   -2.9922    1.4730 H   0  0  0  0  0  0  0  0  0  0  0  0
    9.9311   -4.3103    0.5085 H   0  0  0  0  0  0  0  0  0  0  0  0
   10.4761   -2.2745    3.4231 H   0  0  0  0  0  0  0  0  0  0  0  0
   12.4099   -2.4110    4.9173 H   0  0  0  0  0  0  0  0  0  0  0  0
   14.7204   -3.1942    5.3823 H   0  0  0  0  0  0  0  0  0  0  0  0
   16.7227   -4.4513    4.6911 H   0  0  0  0  0  0  0  0  0  0  0  0
   16.7721   -5.6141    2.5021 H   0  0  0  0  0  0  0  0  0  0  0  0
   14.8208   -5.5175    1.0001 H   0  0  0  0  0  0  0  0  0  0  0  0
   12.5215   -4.7082    0.5191 H   0  0  0  0  0  0  0  0  0  0  0  0
   10.3930   -0.5571    0.8935 H   0  0  0  0  0  0  0  0  0  0  0  0
   11.7348    1.1033    1.1113 H   0  0  0  0  0  0  0  0  0  0  0  0
   13.7161   -0.4474    1.3939 H   0  0  0  0  0  0  0  0  0  0  0  0
   13.9861    1.2626    1.7253 H   0  0  0  0  0  0  0  0  0  0  0  0
   15.8779    0.4257    0.4633 H   0  0  0  0  0  0  0  0  0  0  0  0
   14.8381   -0.2617   -0.7787 H   0  0  0  0  0  0  0  0  0  0  0  0
   15.2221    2.7061   -0.1445 H   0  0  0  0  0  0  0  0  0  0  0  0
   15.7638    1.8586   -1.5943 H   0  0  0  0  0  0  0  0  0  0  0  0
   13.4102    1.4275   -2.2605 H   0  0  0  0  0  0  0  0  0  0  0  0
   13.6726    3.1347   -2.0277 H   0  0  0  0  0  0  0  0  0  0  0  0
   11.6739    4.5304   -1.8983 H   0  0  0  0  0  0  0  0  0  0  0  0
   13.0656    4.6981   -0.7820 H   0  0  0  0  0  0  0  0  0  0  0  0
   11.3359    5.4578    0.9864 H   0  0  0  0  0  0  0  0  0  0  0  0
   11.6319    7.7638    0.4823 H   0  0  0  0  0  0  0  0  0  0  0  0
   13.1087    6.9022    0.0992 H   0  0  0  0  0  0  0  0  0  0  0  0
   12.3604    8.7413   -1.5312 H   0  0  0  0  0  0  0  0  0  0  0  0
   11.0233    7.7213   -2.0208 H   0  0  0  0  0  0  0  0  0  0  0  0
   14.7141    6.7973   -3.0856 H   0  0  0  0  0  0  0  0  0  0  0  0
    9.5836    5.5440   -1.3508 H   0  0  0  0  0  0  0  0  0  0  0  0
    7.4692    6.1397   -1.0967 H   0  0  0  0  0  0  0  0  0  0  0  0
    5.9979    8.0366   -0.2418 H   0  0  0  0  0  0  0  0  0  0  0  0
    7.0955    8.2956    1.0883 H   0  0  0  0  0  0  0  0  0  0  0  0
    9.0007    9.7313    0.8144 H   0  0  0  0  0  0  0  0  0  0  0  0
   10.3093   11.2696   -0.6258 H   0  0  0  0  0  0  0  0  0  0  0  0
    8.2228    9.8610   -4.0882 H   0  0  0  0  0  0  0  0  0  0  0  0
    6.8786    8.3187   -2.6770 H   0  0  0  0  0  0  0  0  0  0  0  0
    7.3844    4.9454    1.3499 H   0  0  0  0  0  0  0  0  0  0  0  0
    5.5976    3.3812    1.5311 H   0  0  0  0  0  0  0  0  0  0  0  0
    6.1507    5.1029    3.3227 H   0  0  0  0  0  0  0  0  0  0  0  0
    5.0458    3.8401    3.7997 H   0  0  0  0  0  0  0  0  0  0  0  0
    2.8057    4.3182    4.5269 H   0  0  0  0  0  0  0  0  0  0  0  0
    1.1382    6.0050    5.2216 H   0  0  0  0  0  0  0  0  0  0  0  0
    1.5067    8.4034    4.7117 H   0  0  0  0  0  0  0  0  0  0  0  0
    3.5567    9.1169    3.5114 H   0  0  0  0  0  0  0  0  0  0  0  0
    5.2296    7.4517    2.8058 H   0  0  0  0  0  0  0  0  0  0  0  0
    2.8582    4.5328    1.6642 H   0  0  0  0  0  0  0  0  0  0  0  0
    0.9094    4.1551    0.5059 H   0  0  0  0  0  0  0  0  0  0  0  0
   -1.7030    1.0124    1.9001 H   0  0  0  0  0  0  0  0  0  0  0  0
    2.5295    0.2810    1.4441 H   0  0  0  0  0  0  0  0  0  0  0  0
    1.7736   -1.6841    1.1000 H   0  0  0  0  0  0  0  0  0  0  0  0
    2.2342   -3.3422    2.6494 H   0  0  0  0  0  0  0  0  0  0  0  0
    0.6894   -3.1084    3.4485 H   0  0  0  0  0  0  0  0  0  0  0  0
    0.9020   -5.2734    2.0824 H   0  0  0  0  0  0  0  0  0  0  0  0
    0.3552   -5.0518   -0.3123 H   0  0  0  0  0  0  0  0  0  0  0  0
    1.8789   -5.6588   -1.8449 H   0  0  0  0  0  0  0  0  0  0  0  0
    2.3656   -2.7123   -2.5589 H   0  0  0  0  0  0  0  0  0  0  0  0
    0.7979   -3.5288   -2.5420 H   0  0  0  0  0  0  0  0  0  0  0  0
    2.0336   -4.0011   -3.7227 H   0  0  0  0  0  0  0  0  0  0  0  0
    4.4535   -4.1418   -1.9058 H   0  0  0  0  0  0  0  0  0  0  0  0
   -1.0576   -3.3445   -0.0464 H   0  0  0  0  0  0  0  0  0  0  0  0
   -3.3756   -3.3478    1.8096 H   0  0  0  0  0  0  0  0  0  0  0  0
   -3.2569   -1.2574    0.6520 H   0  0  0  0  0  0  0  0  0  0  0  0
   -4.6060   -2.1414   -0.0249 H   0  0  0  0  0  0  0  0  0  0  0  0
   -1.4601   -0.4790   -0.7233 H   0  0  0  0  0  0  0  0  0  0  0  0
   -0.5357   -0.1403   -2.9868 H   0  0  0  0  0  0  0  0  0  0  0  0
   -1.4741   -1.3848   -4.9167 H   0  0  0  0  0  0  0  0  0  0  0  0
   -3.3530   -2.9662   -4.5722 H   0  0  0  0  0  0  0  0  0  0  0  0
   -4.2996   -3.3051   -2.3273 H   0  0  0  0  0  0  0  0  0  0  0  0
   -5.1832   -4.5986    1.4594 H   0  0  0  0  0  0  0  0  0  0  0  0
   -5.5453   -6.1602   -0.9814 H   0  0  0  0  0  0  0  0  0  0  0  0
   -3.8999   -7.3728    0.9057 H   0  0  0  0  0  0  0  0  0  0  0  0
   -5.4390   -7.7706    1.6245 H   0  0  0  0  0  0  0  0  0  0  0  0
   -3.3545   -8.0465   -1.4529 H   0  0  0  0  0  0  0  0  0  0  0  0
   -3.5833   -9.8390   -3.1084 H   0  0  0  0  0  0  0  0  0  0  0  0
   -4.8263  -11.7940   -4.0077 H   0  0  0  0  0  0  0  0  0  0  0  0
   -6.7227  -13.3621   -3.8663 H   0  0  0  0  0  0  0  0  0  0  0  0
   -8.3716  -13.1589   -2.0219 H   0  0  0  0  0  0  0  0  0  0  0  0
   -8.1197  -11.4050   -0.3214 H   0  0  0  0  0  0  0  0  0  0  0  0
   -6.8613   -9.4712    0.6002 H   0  0  0  0  0  0  0  0  0  0  0  0
   -7.7533   -6.9724   -1.0194 H   0  0  0  0  0  0  0  0  0  0  0  0
   -9.9547   -6.5535   -0.7686 H   0  0  0  0  0  0  0  0  0  0  0  0
  -10.5920   -7.2558    1.7893 H   0  0  0  0  0  0  0  0  0  0  0  0
   -8.8762   -7.5602    1.8991 H   0  0  0  0  0  0  0  0  0  0  0  0
   -9.1706   -9.0400   -0.2304 H   0  0  0  0  0  0  0  0  0  0  0  0
   -9.7145   -9.6240    1.3336 H   0  0  0  0  0  0  0  0  0  0  0  0
  -11.4749  -10.1696   -0.1910 H   0  0  0  0  0  0  0  0  0  0  0  0
  -12.0511   -8.8634    0.8329 H   0  0  0  0  0  0  0  0  0  0  0  0
  -12.6076   -8.0109   -1.1528 H   0  0  0  0  0  0  0  0  0  0  0  0
  -10.1277   -9.6238   -3.5891 H   0  0  0  0  0  0  0  0  0  0  0  0
  -11.2658   -7.9113   -4.2130 H   0  0  0  0  0  0  0  0  0  0  0  0
  -11.8659   -6.9062   -3.0285 H   0  0  0  0  0  0  0  0  0  0  0  0
   -8.4875   -4.0203   -0.4019 H   0  0  0  0  0  0  0  0  0  0  0  0
  -10.7362   -2.4936    0.6821 H   0  0  0  0  0  0  0  0  0  0  0  0
   -8.8272   -3.3984    2.5281 H   0  0  0  0  0  0  0  0  0  0  0  0
   -8.1062   -1.8860    2.0409 H   0  0  0  0  0  0  0  0  0  0  0  0
   -9.4240   -1.4348    3.9532 H   0  0  0  0  0  0  0  0  0  0  0  0
  -10.3331   -0.7357    2.6309 H   0  0  0  0  0  0  0  0  0  0  0  0
  -10.9229   -3.4264    3.9994 H   0  0  0  0  0  0  0  0  0  0  0  0
  -11.7828   -2.8395    2.5810 H   0  0  0  0  0  0  0  0  0  0  0  0
  -12.6240   -1.0144    3.7377 H   0  0  0  0  0  0  0  0  0  0  0  0
  -10.4891   -2.5229    5.9247 H   0  0  0  0  0  0  0  0  0  0  0  0
  -12.6010   -0.1858    6.9182 H   0  0  0  0  0  0  0  0  0  0  0  0
  -13.7016   -0.6021    5.7545 H   0  0  0  0  0  0  0  0  0  0  0  0
   -9.0283   -0.0881    1.1370 H   0  0  0  0  0  0  0  0  0  0  0  0
   -9.1847    0.7700   -1.6971 H   0  0  0  0  0  0  0  0  0  0  0  0
   -9.5202    3.0562   -0.6881 H   0  0  0  0  0  0  0  0  0  0  0  0
   -9.3740    2.3957    0.9211 H   0  0  0  0  0  0  0  0  0  0  0  0
  -11.4969    1.1668    0.6796 H   0  0  0  0  0  0  0  0  0  0  0  0
  -11.6917    2.8821    0.4054 H   0  0  0  0  0  0  0  0  0  0  0  0
  -11.6547    2.4990   -2.0760 H   0  0  0  0  0  0  0  0  0  0  0  0
  -11.5163    0.7533   -1.7973 H   0  0  0  0  0  0  0  0  0  0  0  0
  -13.6111    1.0708   -0.3907 H   0  0  0  0  0  0  0  0  0  0  0  0
  -12.9942    1.7247   -3.6463 H   0  0  0  0  0  0  0  0  0  0  0  0
  -15.7646    1.6335   -1.1135 H   0  0  0  0  0  0  0  0  0  0  0  0
  -16.0370    0.9457   -2.6001 H   0  0  0  0  0  0  0  0  0  0  0  0
   -7.6908    2.9043   -1.7533 H   0  0  0  0  0  0  0  0  0  0  0  0
   -4.9547    2.1437   -0.9361 H   0  0  0  0  0  0  0  0  0  0  0  0
   -4.2071    4.0603   -2.0865 H   0  0  0  0  0  0  0  0  0  0  0  0
   -5.4869    3.4416   -3.1015 H   0  0  0  0  0  0  0  0  0  0  0  0
   -5.6283    5.8150   -3.0692 H   0  0  0  0  0  0  0  0  0  0  0  0
   -5.4696    5.9239   -1.3341 H   0  0  0  0  0  0  0  0  0  0  0  0
   -7.7431    5.0926   -0.9925 H   0  0  0  0  0  0  0  0  0  0  0  0
   -7.7449    6.4603   -2.0982 H   0  0  0  0  0  0  0  0  0  0  0  0
   -7.6590    4.7049   -3.9136 H   0  0  0  0  0  0  0  0  0  0  0  0
   -9.9151    5.2581   -1.4287 H   0  0  0  0  0  0  0  0  0  0  0  0
  -10.8294    4.1628   -4.4371 H   0  0  0  0  0  0  0  0  0  0  0  0
   -9.4061    3.3151   -4.6451 H   0  0  0  0  0  0  0  0  0  0  0  0
   -3.8042    4.2215    0.2279 H   0  0  0  0  0  0  0  0  0  0  0  0
   -4.9113    4.1375    2.8258 H   0  0  0  0  0  0  0  0  0  0  0  0
   -7.0097    5.1807    1.6810 H   0  0  0  0  0  0  0  0  0  0  0  0
   -7.5759    7.3990    3.2455 H   0  0  0  0  0  0  0  0  0  0  0  0
   -7.7557    8.2130    0.2795 H   0  0  0  0  0  0  0  0  0  0  0  0
   -6.3223    8.6036    1.2150 H   0  0  0  0  0  0  0  0  0  0  0  0
   -9.1605    9.4755    1.9581 H   0  0  0  0  0  0  0  0  0  0  0  0
   -7.6981    9.8269    2.8830 H   0  0  0  0  0  0  0  0  0  0  0  0
   -8.2185   10.6597   -0.0219 H   0  0  0  0  0  0  0  0  0  0  0  0
   -6.7592   11.0461    0.8834 H   0  0  0  0  0  0  0  0  0  0  0  0
   -9.5915   11.9549    1.6598 H   0  0  0  0  0  0  0  0  0  0  0  0
   -8.4407   12.9225    0.7459 H   0  0  0  0  0  0  0  0  0  0  0  0
   -6.9336   12.7844    2.6070 H   0  0  0  0  0  0  0  0  0  0  0  0
   -8.0134   11.9294    3.4751 H   0  0  0  0  0  0  0  0  0  0  0  0
  -10.8030    6.5768    2.3608 H   0  0  0  0  0  0  0  0  0  0  0  0
   -2.6370    5.9448    1.8167 H   0  0  0  0  0  0  0  0  0  0  0  0
   -2.9452    5.5008    3.5014 H   0  0  0  0  0  0  0  0  0  0  0  0
   -1.7150    3.6409    3.1853 H   0  0  0  0  0  0  0  0  0  0  0  0
  1  2  1  0
  2  3  1  0
  3  4  1  0
  4  5  2  0
  4  6  1  0
  6  7  1  0
  7  8  1  0
  8  9  1  0
  9 10  1  0
 10 11  1  0
 11 12  2  3
 11 13  1  0
  6 14  1  0
 14 15  1  0
 15 16  2  0
 15 17  1  0
 17 18  1  0
 18 19  1  0
 19 20  1  0
 20 21  2  0
 21 22  1  0
 22 23  2  0
 23 24  1  0
 24 25  2  0
 25 26  1  0
 26 27  2  0
 27 28  1  0
 17 29  1  0
 29 30  1  0
 30 31  2  0
 30 32  1  0
 32 33  1  0
 33 34  1  0
 34 35  1  0
 35 36  1  0
 36 37  1  0
 37 38  1  0
 38 39  2  0
 38 40  1  0
 40 41  1  0
 41 42  1  0
 42 43  1  0
 43 44  1  0
 44 45  2  0
 44 46  1  0
 41 47  1  0
 47 48  1  0
 48 49  2  0
 48 50  1  0
 50 51  1  0
 51 52  1  0
 52 53  1  0
 53 54  2  0
 54 55  1  0
 55 56  1  0
 55 57  2  0
 57 58  1  0
 50 59  1  0
 59 60  1  0
 60 61  2  0
 60 62  1  0
 62 63  1  0
 63 64  1  0
 64 65  2  0
 65 66  1  0
 66 67  2  0
 67 68  1  0
 68 69  2  0
 62 70  1  0
 70 71  1  0
 71 72  2  0
 71 73  1  0
 73 74  1  0
 74 75  2  0
 75 76  1  0
 76 77  2  0
 77 78  1  0
 77 79  1  0
 79 80  2  0
 79 81  1  0
 81 82  1  0
 82 83  1  0
 83 84  1  0
 84 85  1  0
 85 86  2  0
 85 87  1  0
 87 88  1  0
 87 89  1  0
 89 90  1  0
 90 91  2  0
 83 92  1  0
 92 93  2  0
 92 94  1  0
 94 95  1  0
 95 96  1  0
 96 97  1  0
 97 98  2  0
 98 99  1  0
 99100  2  0
100101  1  0
101102  2  0
 95103  1  0
103104  2  0
103105  1  0
105106  1  0
106107  1  0
107108  1  0
108109  1  0
109110  2  0
110111  1  0
111112  2  0
112113  1  0
113114  2  0
114115  1  0
115116  2  0
116117  1  0
106118  1  0
118119  2  0
118120  1  0
120121  1  0
121122  1  0
122123  1  0
123124  1  0
124125  1  0
125126  1  0
126127  2  3
126128  1  0
121129  1  0
129130  2  0
129131  1  0
131132  1  0
132133  1  0
133134  1  0
134135  1  0
135136  1  0
136137  1  0
137138  2  3
137139  1  0
132140  1  0
140141  2  0
140142  1  0
142143  1  0
143144  1  0
144145  1  0
145146  1  0
146147  1  0
147148  1  0
148149  2  3
148150  1  0
143151  1  0
151152  2  0
151153  1  0
153154  1  0
154155  1  0
155156  1  0
156157  1  0
157158  1  0
158159  1  0
159160  2  3
159161  1  0
154162  1  0
162163  2  0
162164  1  0
164165  1  0
165166  1  0
166167  2  0
166168  1  0
168169  1  0
169170  1  0
170171  1  0
171172  1  0
172173  1  0
173174  1  0
169175  1  0
175176  2  0
175177  1  0
165178  1  0
178179  1  0
179180  1  0
180181  2  0
 90  2  1  0
102 97  1  0
117108  2  0
 28 19  2  0
 37 32  1  0
 58 52  2  0
 69 64  1  0
 78 73  2  0
116111  1  0
 27 22  1  0
180 75  1  0
  1182  1  0
  1183  1  0
  1184  1  0
  2185  1  6
  3186  1  0
  6187  1  1
  7188  1  0
  7189  1  0
  8190  1  0
  8191  1  0
  9192  1  0
  9193  1  0
 10194  1  0
 12195  1  0
 13196  1  0
 13197  1  0
 14198  1  0
 17199  1  6
 18200  1  0
 18201  1  0
 20202  1  0
 21203  1  0
 23204  1  0
 24205  1  0
 25206  1  0
 26207  1  0
 28208  1  0
 29209  1  0
 32210  1  1
 33211  1  0
 33212  1  0
 34213  1  0
 34214  1  0
 35215  1  0
 35216  1  0
 36217  1  0
 36218  1  0
 40219  1  0
 40220  1  0
 41221  1  1
 42222  1  0
 42223  1  0
 43224  1  0
 43225  1  0
 46226  1  0
 47227  1  0
 50228  1  6
 51229  1  0
 51230  1  0
 53231  1  0
 54232  1  0
 57233  1  0
 58234  1  0
 59235  1  0
 62236  1  1
 63237  1  0
 63238  1  0
 65239  1  0
 66240  1  0
 67241  1  0
 68242  1  0
 69243  1  0
 70244  1  0
 74245  1  0
 76246  1  0
 78247  1  0
 81248  1  0
 82249  1  0
 82250  1  0
 83251  1  1
 84252  1  0
 87253  1  1
 88254  1  0
 88255  1  0
 88256  1  0
 89257  1  0
 94258  1  0
 95259  1  1
 96260  1  0
 96261  1  0
 98262  1  0
 99263  1  0
100264  1  0
101265  1  0
102266  1  0
105267  1  0
106268  1  6
107269  1  0
107270  1  0
109271  1  0
110272  1  0
112273  1  0
113274  1  0
114275  1  0
115276  1  0
117277  1  0
120278  1  0
121279  1  6
122280  1  0
122281  1  0
123282  1  0
123283  1  0
124284  1  0
124285  1  0
125286  1  0
127287  1  0
128288  1  0
128289  1  0
131290  1  0
132291  1  1
133292  1  0
133293  1  0
134294  1  0
134295  1  0
135296  1  0
135297  1  0
136298  1  0
138299  1  0
139300  1  0
139301  1  0
142302  1  0
143303  1  6
144304  1  0
144305  1  0
145306  1  0
145307  1  0
146308  1  0
146309  1  0
147310  1  0
149311  1  0
150312  1  0
150313  1  0
153314  1  0
154315  1  1
155316  1  0
155317  1  0
156318  1  0
156319  1  0
157320  1  0
157321  1  0
158322  1  0
160323  1  0
161324  1  0
161325  1  0
164326  1  0
165327  1  1
168328  1  0
169329  1  1
170330  1  0
170331  1  0
171332  1  0
171333  1  0
172334  1  0
172335  1  0
173336  1  0
173337  1  0
174338  1  0
174339  1  0
177340  1  0
178341  1  0
178342  1  0
179343  1  0
M  END
$$$$
