
     RDKit          3D

323331  0  0  0  0  0  0  0  0999 V2000
    7.6874    2.6324   -2.9001 C   0  0  0  0  0  0  0  0  0  0  0  0
    6.6988    3.2497   -1.9136 C   0  0  2  0  0  0  0  0  0  0  0  0
    6.8713    2.6757   -0.5749 N   0  0  0  0  0  0  0  0  0  0  0  0
    7.9641    3.0411    0.1912 C   0  0  0  0  0  0  0  0  0  0  0  0
    8.7120    3.9739   -0.1030 O   0  0  0  0  0  0  0  0  0  0  0  0
    8.2655    2.0972    1.3706 C   0  0  2  0  0  0  0  0  0  0  0  0
    8.1129    2.7533    2.7536 C   0  0  0  0  0  0  0  0  0  0  0  0
    9.2492    3.6549    3.2556 C   0  0  0  0  0  0  0  0  0  0  0  0
    8.9903    5.1518    3.0679 C   0  0  0  0  0  0  0  0  0  0  0  0
   10.1054    5.8970    3.6380 N   0  0  0  0  0  0  0  0  0  0  0  0
   10.1142    7.2514    3.6208 C   0  0  0  0  0  0  0  0  0  0  0  0
    9.2272    7.9913    3.0740 N   0  0  0  0  0  0  0  0  0  0  0  0
   11.1966    7.7375    4.2644 N   0  0  0  0  0  0  0  0  0  0  0  0
    9.5968    1.5506    1.1368 N   0  0  0  0  0  0  0  0  0  0  0  0
    9.7699    0.4651    0.2974 C   0  0  0  0  0  0  0  0  0  0  0  0
    8.8206   -0.1406   -0.2009 O   0  0  0  0  0  0  0  0  0  0  0  0
   11.2478    0.1180    0.0181 C   0  0  2  0  0  0  0  0  0  0  0  0
   11.7576    0.9760   -1.1546 C   0  0  0  0  0  0  0  0  0  0  0  0
   13.2441    0.8210   -1.3898 C   0  0  0  0  0  0  0  0  0  0  0  0
   13.7223   -0.1332   -2.2961 C   0  0  0  0  0  0  0  0  0  0  0  0
   15.0936   -0.2932   -2.5034 C   0  0  0  0  0  0  0  0  0  0  0  0
   16.0211    0.4979   -1.8112 C   0  0  0  0  0  0  0  0  0  0  0  0
   17.4039    0.3474   -2.0102 C   0  0  0  0  0  0  0  0  0  0  0  0
   18.3152    1.1443   -1.3158 C   0  0  0  0  0  0  0  0  0  0  0  0
   17.8556    2.1007   -0.4123 C   0  0  0  0  0  0  0  0  0  0  0  0
   16.4839    2.2601   -0.2058 C   0  0  0  0  0  0  0  0  0  0  0  0
   15.5532    1.4664   -0.8946 C   0  0  0  0  0  0  0  0  0  0  0  0
   14.1679    1.6128   -0.6937 C   0  0  0  0  0  0  0  0  0  0  0  0
   11.3363   -1.3050   -0.2591 N   0  0  0  0  0  0  0  0  0  0  0  0
   11.2470   -2.2342    0.7504 C   0  0  0  0  0  0  0  0  0  0  0  0
   11.2698   -1.9073    1.9359 O   0  0  0  0  0  0  0  0  0  0  0  0
   11.2058   -3.7124    0.2714 C   0  0  1  0  0  0  0  0  0  0  0  0
   11.0559   -4.6706    1.4591 C   0  0  0  0  0  0  0  0  0  0  0  0
    9.6421   -4.6495    2.0356 C   0  0  0  0  0  0  0  0  0  0  0  0
    8.6219   -4.9248    0.9450 C   0  0  0  0  0  0  0  0  0  0  0  0
    8.7931   -4.0018   -0.2568 C   0  0  0  0  0  0  0  0  0  0  0  0
   10.1651   -3.9623   -0.7629 N   0  0  0  0  0  0  0  0  0  0  0  0
   10.5058   -3.7140   -2.0907 C   0  0  0  0  0  0  0  0  0  0  0  0
   11.6201   -3.2453   -2.3594 O   0  0  0  0  0  0  0  0  0  0  0  0
    9.6032   -4.1398   -3.2783 C   0  0  1  0  0  0  0  0  0  0  0  0
    9.7380   -5.6609   -3.5026 C   0  0  2  0  0  0  0  0  0  0  0  0
    9.4358   -6.0247   -4.9526 C   0  0  0  0  0  0  0  0  0  0  0  0
    8.7939   -6.3594   -2.6856 O   0  0  0  0  0  0  0  0  0  0  0  0
    9.3288   -7.6098   -1.8434 P   0  0  0  0  0  0  0  0  0  0  0  0
   10.5089   -7.3839   -0.9719 O   0  0  0  0  0  0  0  0  0  0  0  0
    9.5728   -8.7596   -2.9183 O   0  0  0  0  0  0  0  0  0  0  0  0
    8.0185   -8.1533   -1.1119 O   0  0  0  0  0  0  0  0  0  0  0  0
    8.2092   -3.7330   -3.2570 N   0  0  0  0  0  0  0  0  0  0  0  0
    7.7617   -2.5335   -3.7442 C   0  0  0  0  0  0  0  0  0  0  0  0
    8.5114   -1.6694   -4.1957 O   0  0  0  0  0  0  0  0  0  0  0  0
    6.2369   -2.3600   -3.7292 C   0  0  0  0  0  0  0  0  0  0  0  0
    5.5115   -3.5475   -3.2323 N   0  0  0  0  0  0  0  0  0  0  0  0
    5.0134   -4.4743   -4.2421 C   0  0  0  0  0  0  0  0  0  0  0  0
    5.0960   -3.5334   -1.9053 C   0  0  0  0  0  0  0  0  0  0  0  0
    5.4777   -2.6587   -1.1199 O   0  0  0  0  0  0  0  0  0  0  0  0
    4.1770   -4.6572   -1.3881 C   0  0  1  0  0  0  0  0  0  0  0  0
    5.0092   -5.7977   -0.8176 C   0  0  0  0  0  0  0  0  0  0  0  0
    3.3413   -4.0441   -0.3663 N   0  0  0  0  0  0  0  0  0  0  0  0
    2.0323   -4.4036   -0.1691 C   0  0  0  0  0  0  0  0  0  0  0  0
    1.5424   -5.4306   -0.6170 O   0  0  0  0  0  0  0  0  0  0  0  0
    1.2145   -3.4495    0.6130 C   0  0  0  0  0  0  0  0  0  0  0  0
    0.1465   -3.9293    1.3780 C   0  0  0  0  0  0  0  0  0  0  0  0
   -0.6324   -3.0229    2.1096 C   0  0  0  0  0  0  0  0  0  0  0  0
   -0.3572   -1.6503    2.0770 C   0  0  0  0  0  0  0  0  0  0  0  0
    0.6841   -1.1710    1.2793 C   0  0  0  0  0  0  0  0  0  0  0  0
    1.4645   -2.0756    0.5458 C   0  0  0  0  0  0  0  0  0  0  0  0
    0.9396    0.2767    1.0734 C   0  0  0  0  0  0  0  0  0  0  0  0
    1.5211    0.6339    0.0503 O   0  0  0  0  0  0  0  0  0  0  0  0
    0.4642    1.1515    2.0200 N   0  0  0  0  0  0  0  0  0  0  0  0
    0.5580    2.6133    1.8867 C   0  0  0  0  0  0  0  0  0  0  0  0
   -0.0721    3.1210    0.5762 C   0  0  2  0  0  0  0  0  0  0  0  0
    0.7999    3.0343   -0.6051 N   0  0  0  0  0  0  0  0  0  0  0  0
    2.0162    3.7050   -0.6165 C   0  0  0  0  0  0  0  0  0  0  0  0
    2.3678    4.4880    0.2646 O   0  0  0  0  0  0  0  0  0  0  0  0
    2.8634    3.4316   -1.8718 C   0  0  1  0  0  0  0  0  0  0  0  0
    2.4949    4.4679   -2.9369 C   0  0  0  0  0  0  0  0  0  0  0  0
    4.2766    3.4642   -1.5288 N   0  0  0  0  0  0  0  0  0  0  0  0
    5.2525    3.0616   -2.4181 C   0  0  0  0  0  0  0  0  0  0  0  0
    4.9713    2.6691   -3.5511 O   0  0  0  0  0  0  0  0  0  0  0  0
   -0.7187    4.5181    0.6564 C   0  0  0  0  0  0  0  0  0  0  0  0
   -0.8421    5.1735    1.6831 O   0  0  0  0  0  0  0  0  0  0  0  0
   -1.3056    4.8764   -0.5550 N   0  0  0  0  0  0  0  0  0  0  0  0
   -2.2410    5.9937   -0.6344 C   0  0  1  0  0  0  0  0  0  0  0  0
   -2.4117    6.4133   -2.1048 C   0  0  0  0  0  0  0  0  0  0  0  0
   -2.9006    7.8302   -2.2722 C   0  0  0  0  0  0  0  0  0  0  0  0
   -4.1868    8.0898   -2.7705 C   0  0  0  0  0  0  0  0  0  0  0  0
   -4.6408    9.4036   -2.8943 C   0  0  0  0  0  0  0  0  0  0  0  0
   -3.8139   10.4644   -2.5368 C   0  0  0  0  0  0  0  0  0  0  0  0
   -2.5351   10.2176   -2.0411 C   0  0  0  0  0  0  0  0  0  0  0  0
   -2.0775    8.9060   -1.9155 C   0  0  0  0  0  0  0  0  0  0  0  0
   -3.5918    5.5391   -0.0186 C   0  0  0  0  0  0  0  0  0  0  0  0
   -3.8336    4.3700    0.2928 O   0  0  0  0  0  0  0  0  0  0  0  0
   -4.5275    6.5369    0.1503 N   0  0  0  0  0  0  0  0  0  0  0  0
   -5.5852    6.4423    1.1722 C   0  0  1  0  0  0  0  0  0  0  0  0
   -6.1573    7.8476    1.5077 C   0  0  0  0  0  0  0  0  0  0  0  0
   -5.1347    8.9343    1.7558 C   0  0  0  0  0  0  0  0  0  0  0  0
   -4.0792    8.7621    2.6534 C   0  0  0  0  0  0  0  0  0  0  0  0
   -3.1299    9.7749    2.8347 C   0  0  0  0  0  0  0  0  0  0  0  0
   -3.2230   10.9857    2.1294 C   0  0  0  0  0  0  0  0  0  0  0  0
   -2.2746   12.0118    2.2829 C   0  0  0  0  0  0  0  0  0  0  0  0
   -2.3907   13.2063    1.5691 C   0  0  0  0  0  0  0  0  0  0  0  0
   -3.4616   13.3978    0.7044 C   0  0  0  0  0  0  0  0  0  0  0  0
   -4.4143   12.3948    0.5412 C   0  0  0  0  0  0  0  0  0  0  0  0
   -4.3035   11.1802    1.2414 C   0  0  0  0  0  0  0  0  0  0  0  0
   -5.2440   10.1526    1.0661 C   0  0  0  0  0  0  0  0  0  0  0  0
   -6.7901    5.5393    0.7933 C   0  0  0  0  0  0  0  0  0  0  0  0
   -7.9547    5.8436    1.0815 O   0  0  0  0  0  0  0  0  0  0  0  0
   -6.5005    4.3311    0.2103 N   0  0  0  0  0  0  0  0  0  0  0  0
   -7.5216    3.3308   -0.0632 C   0  0  1  0  0  0  0  0  0  0  0  0
   -7.6622    3.0343   -1.5623 C   0  0  0  0  0  0  0  0  0  0  0  0
   -8.3132    4.1751   -2.3511 C   0  0  0  0  0  0  0  0  0  0  0  0
   -7.3257    5.2615   -2.7743 C   0  0  0  0  0  0  0  0  0  0  0  0
   -8.0227    6.3333   -3.4552 N   0  0  0  0  0  0  0  0  0  0  0  0
   -8.5085    7.4324   -2.8427 C   0  0  0  0  0  0  0  0  0  0  0  0
   -8.7375    7.6377   -1.5974 N   0  0  0  0  0  0  0  0  0  0  0  0
   -8.7944    8.4065   -3.7279 N   0  0  0  0  0  0  0  0  0  0  0  0
   -7.1630    2.0250    0.6738 C   0  0  0  0  0  0  0  0  0  0  0  0
   -6.1687    1.3589    0.3939 O   0  0  0  0  0  0  0  0  0  0  0  0
   -8.0723    1.6480    1.6346 N   0  0  0  0  0  0  0  0  0  0  0  0
   -7.9012    0.4453    2.4564 C   0  0  1  0  0  0  0  0  0  0  0  0
   -8.7981    0.5184    3.7051 C   0  0  0  0  0  0  0  0  0  0  0  0
   -8.3151    1.5628    4.7165 C   0  0  0  0  0  0  0  0  0  0  0  0
   -9.4374    2.4542    5.2638 C   0  0  0  0  0  0  0  0  0  0  0  0
  -10.0696    3.2408    4.2156 N   0  0  0  0  0  0  0  0  0  0  0  0
   -9.4241    4.2048    3.5277 C   0  0  0  0  0  0  0  0  0  0  0  0
   -8.2799    4.6921    3.8350 N   0  0  0  0  0  0  0  0  0  0  0  0
  -10.0871    4.5535    2.4095 N   0  0  0  0  0  0  0  0  0  0  0  0
   -8.3058   -0.7747    1.5910 C   0  0  0  0  0  0  0  0  0  0  0  0
   -9.4120   -1.3154    1.6755 O   0  0  0  0  0  0  0  0  0  0  0  0
   -7.3457   -1.1606    0.6692 N   0  0  0  0  0  0  0  0  0  0  0  0
   -7.7010   -2.0335   -0.4423 C   0  0  1  0  0  0  0  0  0  0  0  0
   -7.8554   -1.2032   -1.7314 C   0  0  0  0  0  0  0  0  0  0  0  0
   -8.5467   -1.9567   -2.8715 C   0  0  0  0  0  0  0  0  0  0  0  0
  -10.0732   -1.8512   -2.8664 C   0  0  0  0  0  0  0  0  0  0  0  0
  -10.6513   -2.1010   -1.5595 N   0  0  0  0  0  0  0  0  0  0  0  0
  -10.7693   -3.3386   -1.0200 C   0  0  0  0  0  0  0  0  0  0  0  0
  -10.1665   -4.4017   -1.4110 N   0  0  0  0  0  0  0  0  0  0  0  0
  -11.5280   -3.2856    0.0945 N   0  0  0  0  0  0  0  0  0  0  0  0
   -6.6910   -3.1830   -0.6510 C   0  0  0  0  0  0  0  0  0  0  0  0
   -5.4932   -3.0037   -0.8371 O   0  0  0  0  0  0  0  0  0  0  0  0
   -7.2776   -4.4389   -0.5864 N   0  0  0  0  0  0  0  0  0  0  0  0
   -6.5669   -5.6746   -0.9173 C   0  0  1  0  0  0  0  0  0  0  0  0
   -6.3116   -5.8731   -2.4209 C   0  0  0  0  0  0  0  0  0  0  0  0
   -7.5628   -6.0630   -3.3036 C   0  0  0  0  0  0  0  0  0  0  0  0
   -8.5623   -7.0877   -2.7633 C   0  0  0  0  0  0  0  0  0  0  0  0
   -9.5159   -7.5204   -3.7722 N   0  0  0  0  0  0  0  0  0  0  0  0
  -10.5782   -6.8196   -4.2168 C   0  0  0  0  0  0  0  0  0  0  0  0
  -10.8771   -5.5817   -4.0821 N   0  0  0  0  0  0  0  0  0  0  0  0
  -11.4272   -7.6151   -4.9032 N   0  0  0  0  0  0  0  0  0  0  0  0
   -5.3073   -5.9690   -0.0495 C   0  0  0  0  0  0  0  0  0  0  0  0
   -4.4206   -6.7483   -0.3945 O   0  0  0  0  0  0  0  0  0  0  0  0
   -5.3585   -5.4388    1.2193 N   0  0  0  0  0  0  0  0  0  0  0  0
   -4.5466   -5.9420    2.3248 C   0  0  2  0  0  0  0  0  0  0  0  0
   -5.4802   -6.6624    3.3123 C   0  0  0  0  0  0  0  0  0  0  0  0
   -6.7026   -6.5166    3.2815 O   0  0  0  0  0  0  0  0  0  0  0  0
   -4.8529   -7.4644    4.2375 N   0  0  0  0  0  0  0  0  0  0  0  0
   -5.5867   -8.2260    5.2493 C   0  0  1  0  0  0  0  0  0  0  0  0
   -6.3000   -9.4394    4.6364 C   0  0  0  0  0  0  0  0  0  0  0  0
   -5.3576  -10.4041    3.9118 C   0  0  0  0  0  0  0  0  0  0  0  0
   -6.0568  -11.6902    3.4429 C   0  0  0  0  0  0  0  0  0  0  0  0
   -7.2094  -11.4336    2.4746 C   0  0  0  0  0  0  0  0  0  0  0  0
   -7.7729  -12.6878    1.9843 N   0  0  0  0  0  0  0  0  0  0  0  0
   -4.6758   -8.6598    6.4006 C   0  0  0  0  0  0  0  0  0  0  0  0
   -5.0237   -9.2504    7.4106 O   0  0  0  0  0  0  0  0  0  0  0  0
   -3.3706   -8.3640    6.1961 O   0  0  0  0  0  0  0  0  0  0  0  0
   -3.8171   -4.8062    3.0454 C   0  0  0  0  0  0  0  0  0  0  0  0
   -2.5722   -4.4451    2.3862 N   0  0  0  0  0  0  0  0  0  0  0  0
   -1.7630   -3.4794    2.9454 C   0  0  0  0  0  0  0  0  0  0  0  0
   -1.9573   -2.9729    4.0424 O   0  0  0  0  0  0  0  0  0  0  0  0
    8.7188    2.7471   -2.5580 H   0  0  0  0  0  0  0  0  0  0  0  0
    7.6058    3.1074   -3.8841 H   0  0  0  0  0  0  0  0  0  0  0  0
    7.4983    1.5608   -3.0315 H   0  0  0  0  0  0  0  0  0  0  0  0
    6.8804    4.3292   -1.8548 H   0  0  0  0  0  0  0  0  0  0  0  0
    6.5597    1.7135   -0.4767 H   0  0  0  0  0  0  0  0  0  0  0  0
    7.5494    1.2635    1.3344 H   0  0  0  0  0  0  0  0  0  0  0  0
    8.0410    1.9252    3.4779 H   0  0  0  0  0  0  0  0  0  0  0  0
    7.1515    3.2849    2.8067 H   0  0  0  0  0  0  0  0  0  0  0  0
   10.2158    3.3872    2.8220 H   0  0  0  0  0  0  0  0  0  0  0  0
    9.3578    3.4738    4.3339 H   0  0  0  0  0  0  0  0  0  0  0  0
    8.8862    5.3984    2.0080 H   0  0  0  0  0  0  0  0  0  0  0  0
    8.0620    5.4311    3.5804 H   0  0  0  0  0  0  0  0  0  0  0  0
   10.4155    5.5314    4.5313 H   0  0  0  0  0  0  0  0  0  0  0  0
    9.4550    8.9766    3.2176 H   0  0  0  0  0  0  0  0  0  0  0  0
   12.0129    7.1495    4.1307 H   0  0  0  0  0  0  0  0  0  0  0  0
   11.4121    8.7006    4.0377 H   0  0  0  0  0  0  0  0  0  0  0  0
   10.3676    2.2090    1.1711 H   0  0  0  0  0  0  0  0  0  0  0  0
   11.8320    0.3240    0.9284 H   0  0  0  0  0  0  0  0  0  0  0  0
   11.5410    2.0357   -0.9690 H   0  0  0  0  0  0  0  0  0  0  0  0
   11.2157    0.7201   -2.0732 H   0  0  0  0  0  0  0  0  0  0  0  0
   13.0285   -0.7707   -2.8445 H   0  0  0  0  0  0  0  0  0  0  0  0
   15.4311   -1.0450   -3.2145 H   0  0  0  0  0  0  0  0  0  0  0  0
   17.7798   -0.3958   -2.7082 H   0  0  0  0  0  0  0  0  0  0  0  0
   19.3816    1.0183   -1.4798 H   0  0  0  0  0  0  0  0  0  0  0  0
   18.5648    2.7194    0.1308 H   0  0  0  0  0  0  0  0  0  0  0  0
   16.1464    3.0131    0.5039 H   0  0  0  0  0  0  0  0  0  0  0  0
   13.8072    2.3567    0.0131 H   0  0  0  0  0  0  0  0  0  0  0  0
   11.2372   -1.6299   -1.2144 H   0  0  0  0  0  0  0  0  0  0  0  0
   12.1933   -3.9038   -0.1678 H   0  0  0  0  0  0  0  0  0  0  0  0
   11.2814   -5.6898    1.1251 H   0  0  0  0  0  0  0  0  0  0  0  0
   11.7751   -4.4301    2.2514 H   0  0  0  0  0  0  0  0  0  0  0  0
    9.4287   -3.6806    2.5002 H   0  0  0  0  0  0  0  0  0  0  0  0
    9.5544   -5.4045    2.8251 H   0  0  0  0  0  0  0  0  0  0  0  0
    7.6106   -4.8213    1.3487 H   0  0  0  0  0  0  0  0  0  0  0  0
    8.7252   -5.9655    0.6171 H   0  0  0  0  0  0  0  0  0  0  0  0
    8.1004   -4.3424   -1.0169 H   0  0  0  0  0  0  0  0  0  0  0  0
    8.5114   -2.9757    0.0024 H   0  0  0  0  0  0  0  0  0  0  0  0
   10.0551   -3.6309   -4.1385 H   0  0  0  0  0  0  0  0  0  0  0  0
   10.7570   -5.9863   -3.2647 H   0  0  0  0  0  0  0  0  0  0  0  0
    9.5726   -7.0967   -5.1176 H   0  0  0  0  0  0  0  0  0  0  0  0
   10.0898   -5.4881   -5.6476 H   0  0  0  0  0  0  0  0  0  0  0  0
    8.3921   -5.8105   -5.2122 H   0  0  0  0  0  0  0  0  0  0  0  0
   10.2559   -9.3738   -2.5828 H   0  0  0  0  0  0  0  0  0  0  0  0
    7.3253   -8.3566   -1.7603 H   0  0  0  0  0  0  0  0  0  0  0  0
    7.5165   -4.3910   -2.9207 H   0  0  0  0  0  0  0  0  0  0  0  0
    5.9050   -2.1604   -4.7570 H   0  0  0  0  0  0  0  0  0  0  0  0
    6.0025   -1.4834   -3.1167 H   0  0  0  0  0  0  0  0  0  0  0  0
    4.7417   -5.4396   -3.8146 H   0  0  0  0  0  0  0  0  0  0  0  0
    5.7899   -4.6351   -4.9971 H   0  0  0  0  0  0  0  0  0  0  0  0
    4.1341   -4.0234   -4.7102 H   0  0  0  0  0  0  0  0  0  0  0  0
    3.5195   -5.0170   -2.1807 H   0  0  0  0  0  0  0  0  0  0  0  0
    4.3672   -6.6159   -0.4780 H   0  0  0  0  0  0  0  0  0  0  0  0
    5.5908   -5.4597    0.0488 H   0  0  0  0  0  0  0  0  0  0  0  0
    5.7159   -6.1862   -1.5566 H   0  0  0  0  0  0  0  0  0  0  0  0
    3.7438   -3.2276    0.0870 H   0  0  0  0  0  0  0  0  0  0  0  0
   -0.0558   -4.9987    1.4133 H   0  0  0  0  0  0  0  0  0  0  0  0
   -1.0049   -0.9787    2.6400 H   0  0  0  0  0  0  0  0  0  0  0  0
    2.2447   -1.6829   -0.1054 H   0  0  0  0  0  0  0  0  0  0  0  0
    0.1756    0.8006    2.9259 H   0  0  0  0  0  0  0  0  0  0  0  0
    1.6148    2.8861    1.9822 H   0  0  0  0  0  0  0  0  0  0  0  0
    0.0274    3.0235    2.7536 H   0  0  0  0  0  0  0  0  0  0  0  0
   -0.9144    2.4549    0.3416 H   0  0  0  0  0  0  0  0  0  0  0  0
    0.9038    2.0757   -0.9326 H   0  0  0  0  0  0  0  0  0  0  0  0
    2.6324    2.4270   -2.2507 H   0  0  0  0  0  0  0  0  0  0  0  0
    1.4168    4.6467   -2.9702 H   0  0  0  0  0  0  0  0  0  0  0  0
    2.8002    4.1234   -3.9278 H   0  0  0  0  0  0  0  0  0  0  0  0
    2.9891    5.4274   -2.7546 H   0  0  0  0  0  0  0  0  0  0  0  0
    4.5475    3.8716   -0.6365 H   0  0  0  0  0  0  0  0  0  0  0  0
   -1.4398    4.1128   -1.2029 H   0  0  0  0  0  0  0  0  0  0  0  0
   -1.8446    6.8054   -0.0131 H   0  0  0  0  0  0  0  0  0  0  0  0
   -3.0873    5.7177   -2.6199 H   0  0  0  0  0  0  0  0  0  0  0  0
   -1.4499    6.3335   -2.6298 H   0  0  0  0  0  0  0  0  0  0  0  0
   -4.8508    7.2761   -3.0475 H   0  0  0  0  0  0  0  0  0  0  0  0
   -5.6470    9.5945   -3.2618 H   0  0  0  0  0  0  0  0  0  0  0  0
   -4.1683   11.4874   -2.6322 H   0  0  0  0  0  0  0  0  0  0  0  0
   -1.8982   11.0465   -1.7402 H   0  0  0  0  0  0  0  0  0  0  0  0
   -1.0739    8.7341   -1.5247 H   0  0  0  0  0  0  0  0  0  0  0  0
   -4.1814    7.4775   -0.0105 H   0  0  0  0  0  0  0  0  0  0  0  0
   -5.1318    6.0039    2.0704 H   0  0  0  0  0  0  0  0  0  0  0  0
   -6.8109    8.1619    0.6833 H   0  0  0  0  0  0  0  0  0  0  0  0
   -6.8010    7.7770    2.3936 H   0  0  0  0  0  0  0  0  0  0  0  0
   -3.9726    7.8398    3.2197 H   0  0  0  0  0  0  0  0  0  0  0  0
   -2.3152    9.6059    3.5311 H   0  0  0  0  0  0  0  0  0  0  0  0
   -1.4375   11.8813    2.9624 H   0  0  0  0  0  0  0  0  0  0  0  0
   -1.6482   13.9909    1.6998 H   0  0  0  0  0  0  0  0  0  0  0  0
   -3.5595   14.3298    0.1518 H   0  0  0  0  0  0  0  0  0  0  0  0
   -5.2475   12.5608   -0.1375 H   0  0  0  0  0  0  0  0  0  0  0  0
   -6.0718   10.2986    0.3677 H   0  0  0  0  0  0  0  0  0  0  0  0
   -5.5221    4.0262    0.2118 H   0  0  0  0  0  0  0  0  0  0  0  0
   -8.4888    3.6830    0.3042 H   0  0  0  0  0  0  0  0  0  0  0  0
   -6.6925    2.7633   -1.9987 H   0  0  0  0  0  0  0  0  0  0  0  0
   -8.3035    2.1476   -1.6722 H   0  0  0  0  0  0  0  0  0  0  0  0
   -9.1444    4.5998   -1.7747 H   0  0  0  0  0  0  0  0  0  0  0  0
   -8.7613    3.7480   -3.2573 H   0  0  0  0  0  0  0  0  0  0  0  0
   -6.7609    5.6692   -1.9348 H   0  0  0  0  0  0  0  0  0  0  0  0
   -6.5876    4.8269   -3.4587 H   0  0  0  0  0  0  0  0  0  0  0  0
   -7.5979    6.5625   -4.3499 H   0  0  0  0  0  0  0  0  0  0  0  0
   -8.5101    6.8045   -1.0494 H   0  0  0  0  0  0  0  0  0  0  0  0
   -9.2967    9.1459   -3.2432 H   0  0  0  0  0  0  0  0  0  0  0  0
   -9.3640    8.0559   -4.4930 H   0  0  0  0  0  0  0  0  0  0  0  0
   -8.6963    2.3717    1.9849 H   0  0  0  0  0  0  0  0  0  0  0  0
   -6.8455    0.3386    2.7373 H   0  0  0  0  0  0  0  0  0  0  0  0
   -9.8331    0.7133    3.4019 H   0  0  0  0  0  0  0  0  0  0  0  0
   -8.8071   -0.4617    4.2002 H   0  0  0  0  0  0  0  0  0  0  0  0
   -7.5207    2.1861    4.2903 H   0  0  0  0  0  0  0  0  0  0  0  0
   -7.8522    1.0419    5.5671 H   0  0  0  0  0  0  0  0  0  0  0  0
   -9.0324    3.1185    6.0355 H   0  0  0  0  0  0  0  0  0  0  0  0
  -10.1985    1.8322    5.7472 H   0  0  0  0  0  0  0  0  0  0  0  0
  -10.8163    2.7761    3.7232 H   0  0  0  0  0  0  0  0  0  0  0  0
   -8.0316    5.3915    3.1280 H   0  0  0  0  0  0  0  0  0  0  0  0
  -11.0481    4.8158    2.5959 H   0  0  0  0  0  0  0  0  0  0  0  0
   -9.6260    5.3012    1.8843 H   0  0  0  0  0  0  0  0  0  0  0  0
   -6.5415   -0.5396    0.5396 H   0  0  0  0  0  0  0  0  0  0  0  0
   -8.6489   -2.4868   -0.1734 H   0  0  0  0  0  0  0  0  0  0  0  0
   -8.4084   -0.2820   -1.5204 H   0  0  0  0  0  0  0  0  0  0  0  0
   -6.8607   -0.8911   -2.0711 H   0  0  0  0  0  0  0  0  0  0  0  0
   -8.1910   -1.5558   -3.8277 H   0  0  0  0  0  0  0  0  0  0  0  0
   -8.2415   -3.0037   -2.8708 H   0  0  0  0  0  0  0  0  0  0  0  0
  -10.5060   -2.5178   -3.6196 H   0  0  0  0  0  0  0  0  0  0  0  0
  -10.3388   -0.8315   -3.1580 H   0  0  0  0  0  0  0  0  0  0  0  0
  -11.4787   -1.5403   -1.3907 H   0  0  0  0  0  0  0  0  0  0  0  0
  -10.5188   -5.1792   -0.8382 H   0  0  0  0  0  0  0  0  0  0  0  0
  -11.2271   -2.5037    0.6865 H   0  0  0  0  0  0  0  0  0  0  0  0
  -11.5246   -4.1329    0.6521 H   0  0  0  0  0  0  0  0  0  0  0  0
   -8.2851   -4.4493   -0.7708 H   0  0  0  0  0  0  0  0  0  0  0  0
   -7.2534   -6.4619   -0.5895 H   0  0  0  0  0  0  0  0  0  0  0  0
   -5.6785   -6.7611   -2.5656 H   0  0  0  0  0  0  0  0  0  0  0  0
   -5.7333   -5.0307   -2.8249 H   0  0  0  0  0  0  0  0  0  0  0  0
   -8.0556   -5.1008   -3.4450 H   0  0  0  0  0  0  0  0  0  0  0  0
   -7.2247   -6.3759   -4.3020 H   0  0  0  0  0  0  0  0  0  0  0  0
   -8.0075   -7.9768   -2.4355 H   0  0  0  0  0  0  0  0  0  0  0  0
   -9.0953   -6.7109   -1.8850 H   0  0  0  0  0  0  0  0  0  0  0  0
   -9.7541   -8.5042   -3.6670 H   0  0  0  0  0  0  0  0  0  0  0  0
  -10.2036   -5.1190   -3.4586 H   0  0  0  0  0  0  0  0  0  0  0  0
  -10.9498   -8.1399   -5.6260 H   0  0  0  0  0  0  0  0  0  0  0  0
  -12.1412   -7.0283   -5.3204 H   0  0  0  0  0  0  0  0  0  0  0  0
   -6.2226   -4.9616    1.4658 H   0  0  0  0  0  0  0  0  0  0  0  0
   -3.8291   -6.6812    1.9514 H   0  0  0  0  0  0  0  0  0  0  0  0
   -3.8364   -7.5156    4.2805 H   0  0  0  0  0  0  0  0  0  0  0  0
   -6.3359   -7.5433    5.6756 H   0  0  0  0  0  0  0  0  0  0  0  0
   -7.0555   -9.0805    3.9270 H   0  0  0  0  0  0  0  0  0  0  0  0
   -6.8385   -9.9804    5.4227 H   0  0  0  0  0  0  0  0  0  0  0  0
   -4.5323  -10.6924    4.5798 H   0  0  0  0  0  0  0  0  0  0  0  0
   -4.9006   -9.9099    3.0440 H   0  0  0  0  0  0  0  0  0  0  0  0
   -5.3015  -12.3279    2.9599 H   0  0  0  0  0  0  0  0  0  0  0  0
   -6.4163  -12.2394    4.3212 H   0  0  0  0  0  0  0  0  0  0  0  0
   -6.8703  -10.8350    1.6209 H   0  0  0  0  0  0  0  0  0  0  0  0
   -8.0103  -10.8778    2.9699 H   0  0  0  0  0  0  0  0  0  0  0  0
   -7.0547  -13.2184    1.4913 H   0  0  0  0  0  0  0  0  0  0  0  0
   -8.0568  -13.2671    2.7750 H   0  0  0  0  0  0  0  0  0  0  0  0
   -2.9258   -8.7219    6.9979 H   0  0  0  0  0  0  0  0  0  0  0  0
   -3.5659   -5.0758    4.0797 H   0  0  0  0  0  0  0  0  0  0  0  0
   -4.4420   -3.9078    3.0919 H   0  0  0  0  0  0  0  0  0  0  0  0
   -2.5319   -4.5775    1.3785 H   0  0  0  0  0  0  0  0  0  0  0  0
  1  2  1  0
  2  3  1  0
  3  4  1  0
  4  5  2  0
  4  6  1  0
  6  7  1  0
  7  8  1  0
  8  9  1  0
  9 10  1  0
 10 11  1  0
 11 12  2  3
 11 13  1  0
  6 14  1  0
 14 15  1  0
 15 16  2  0
 15 17  1  0
 17 18  1  0
 18 19  1  0
 19 20  1  0
 20 21  2  0
 21 22  1  0
 22 23  2  0
 23 24  1  0
 24 25  2  0
 25 26  1  0
 26 27  2  0
 27 28  1  0
 17 29  1  0
 29 30  1  0
 30 31  2  0
 30 32  1  0
 32 33  1  0
 33 34  1  0
 34 35  1  0
 35 36  1  0
 36 37  1  0
 37 38  1  0
 38 39  2  0
 38 40  1  0
 40 41  1  0
 41 42  1  0
 41 43  1  0
 43 44  1  0
 44 45  2  0
 44 46  1  0
 44 47  1  0
 40 48  1  0
 48 49  1  0
 49 50  2  0
 49 51  1  0
 51 52  1  0
 52 53  1  0
 52 54  1  0
 54 55  2  0
 54 56  1  0
 56 57  1  0
 56 58  1  0
 58 59  1  0
 59 60  2  0
 59 61  1  0
 61 62  1  0
 62 63  2  0
 63 64  1  0
 64 65  2  0
 65 66  1  0
 65 67  1  0
 67 68  2  0
 67 69  1  0
 69 70  1  0
 70 71  1  0
 71 72  1  0
 72 73  1  0
 73 74  2  0
 73 75  1  0
 75 76  1  0
 75 77  1  0
 77 78  1  0
 78 79  2  0
 71 80  1  0
 80 81  2  0
 80 82  1  0
 82 83  1  0
 83 84  1  0
 84 85  1  0
 85 86  2  0
 86 87  1  0
 87 88  2  0
 88 89  1  0
 89 90  2  0
 83 91  1  0
 91 92  2  0
 91 93  1  0
 93 94  1  0
 94 95  1  0
 95 96  1  0
 96 97  1  0
 97 98  2  0
 98 99  1  0
 99100  2  0
100101  1  0
101102  2  0
102103  1  0
103104  2  0
104105  1  0
 94106  1  0
106107  2  0
106108  1  0
108109  1  0
109110  1  0
110111  1  0
111112  1  0
112113  1  0
113114  1  0
114115  2  3
114116  1  0
109117  1  0
117118  2  0
117119  1  0
119120  1  0
120121  1  0
121122  1  0
122123  1  0
123124  1  0
124125  1  0
125126  2  3
125127  1  0
120128  1  0
128129  2  0
128130  1  0
130131  1  0
131132  1  0
132133  1  0
133134  1  0
134135  1  0
135136  1  0
136137  2  3
136138  1  0
131139  1  0
139140  2  0
139141  1  0
141142  1  0
142143  1  0
143144  1  0
144145  1  0
145146  1  0
146147  1  0
147148  2  3
147149  1  0
142150  1  0
150151  2  0
150152  1  0
152153  1  0
153154  1  0
154155  2  0
154156  1  0
156157  1  0
157158  1  0
158159  1  0
159160  1  0
160161  1  0
161162  1  0
157163  1  0
163164  2  0
163165  1  0
153166  1  0
166167  1  0
167168  1  0
168169  2  0
 78  2  1  0
 90 85  1  0
105 96  2  0
 28 19  2  0
 37 32  1  0
 66 61  2  0
104 99  1  0
 27 22  1  0
168 63  1  0
  1170  1  0
  1171  1  0
  1172  1  0
  2173  1  1
  3174  1  0
  6175  1  1
  7176  1  0
  7177  1  0
  8178  1  0
  8179  1  0
  9180  1  0
  9181  1  0
 10182  1  0
 12183  1  0
 13184  1  0
 13185  1  0
 14186  1  0
 17187  1  1
 18188  1  0
 18189  1  0
 20190  1  0
 21191  1  0
 23192  1  0
 24193  1  0
 25194  1  0
 26195  1  0
 28196  1  0
 29197  1  0
 32198  1  6
 33199  1  0
 33200  1  0
 34201  1  0
 34202  1  0
 35203  1  0
 35204  1  0
 36205  1  0
 36206  1  0
 40207  1  6
 41208  1  1
 42209  1  0
 42210  1  0
 42211  1  0
 46212  1  0
 47213  1  0
 48214  1  0
 51215  1  0
 51216  1  0
 53217  1  0
 53218  1  0
 53219  1  0
 56220  1  6
 57221  1  0
 57222  1  0
 57223  1  0
 58224  1  0
 62225  1  0
 64226  1  0
 66227  1  0
 69228  1  0
 70229  1  0
 70230  1  0
 71231  1  6
 72232  1  0
 75233  1  6
 76234  1  0
 76235  1  0
 76236  1  0
 77237  1  0
 82238  1  0
 83239  1  1
 84240  1  0
 84241  1  0
 86242  1  0
 87243  1  0
 88244  1  0
 89245  1  0
 90246  1  0
 93247  1  0
 94248  1  1
 95249  1  0
 95250  1  0
 97251  1  0
 98252  1  0
100253  1  0
101254  1  0
102255  1  0
103256  1  0
105257  1  0
108258  1  0
109259  1  1
110260  1  0
110261  1  0
111262  1  0
111263  1  0
112264  1  0
112265  1  0
113266  1  0
115267  1  0
116268  1  0
116269  1  0
119270  1  0
120271  1  1
121272  1  0
121273  1  0
122274  1  0
122275  1  0
123276  1  0
123277  1  0
124278  1  0
126279  1  0
127280  1  0
127281  1  0
130282  1  0
131283  1  1
132284  1  0
132285  1  0
133286  1  0
133287  1  0
134288  1  0
134289  1  0
135290  1  0
137291  1  0
138292  1  0
138293  1  0
141294  1  0
142295  1  1
143296  1  0
143297  1  0
144298  1  0
144299  1  0
145300  1  0
145301  1  0
146302  1  0
148303  1  0
149304  1  0
149305  1  0
152306  1  0
153307  1  6
156308  1  0
157309  1  1
158310  1  0
158311  1  0
159312  1  0
159313  1  0
160314  1  0
160315  1  0
161316  1  0
161317  1  0
162318  1  0
162319  1  0
165320  1  0
166321  1  0
166322  1  0
167323  1  0
M  END
$$$$
