
     RDKit          3D

 47 49  0  0  0  0  0  0  0  0999 V2000
   -0.5068    1.0356    1.5635 O   0  0  0  0  0  0  0  0  0  0  0  0
   -0.0071    0.5215    0.5654 C   0  0  0  0  0  0  0  0  0  0  0  0
   -0.7059    0.2885   -0.6009 N   0  0  0  0  0  0  0  0  0  0  0  0
   -2.0972    0.7237   -0.7700 C   0  0  1  0  0  0  0  0  0  0  0  0
   -2.1718    2.1770   -1.2943 C   0  0  0  0  0  0  0  0  0  0  0  0
   -1.3101    3.0546   -0.5895 O   0  0  0  0  0  0  0  0  0  0  0  0
   -1.8059    3.7948    0.7373 P   0  0  0  0  0  0  0  0  0  0  0  0
   -0.8123    4.6639    1.4259 O   0  0  0  0  0  0  0  0  0  0  0  0
   -3.1057    4.5964    0.2614 O   0  0  0  0  0  0  0  0  0  0  0  0
   -2.4476    2.6588    1.6518 O   0  0  0  0  0  0  0  0  0  0  0  0
   -2.8659   -0.2103   -1.7301 C   0  0  0  0  0  0  0  0  0  0  0  0
   -2.9132   -1.6847   -1.3810 C   0  0  0  0  0  0  0  0  0  0  0  0
   -2.8143   -2.1634   -0.0675 C   0  0  0  0  0  0  0  0  0  0  0  0
   -2.8904   -3.5328    0.2006 C   0  0  0  0  0  0  0  0  0  0  0  0
   -3.0833   -4.4408   -0.8368 C   0  0  0  0  0  0  0  0  0  0  0  0
   -3.2045   -3.9804   -2.1442 C   0  0  0  0  0  0  0  0  0  0  0  0
   -3.1244   -2.6131   -2.4140 C   0  0  0  0  0  0  0  0  0  0  0  0
    1.4292    0.1444    0.5544 C   0  0  0  0  0  0  0  0  0  0  0  0
    1.8886   -0.9611   -0.1674 C   0  0  0  0  0  0  0  0  0  0  0  0
    3.2470   -1.2866   -0.1497 C   0  0  0  0  0  0  0  0  0  0  0  0
    4.1593   -0.5209    0.5937 C   0  0  0  0  0  0  0  0  0  0  0  0
    5.5265   -0.8378    0.6216 C   0  0  0  0  0  0  0  0  0  0  0  0
    6.4208   -0.0729    1.3728 C   0  0  0  0  0  0  0  0  0  0  0  0
    5.9599    1.0173    2.1056 C   0  0  0  0  0  0  0  0  0  0  0  0
    4.6038    1.3462    2.0886 C   0  0  0  0  0  0  0  0  0  0  0  0
    3.6914    0.5878    1.3375 C   0  0  0  0  0  0  0  0  0  0  0  0
    2.3248    0.9068    1.3126 C   0  0  0  0  0  0  0  0  0  0  0  0
   -0.1828    0.0608   -1.4364 H   0  0  0  0  0  0  0  0  0  0  0  0
   -2.5740    0.6890    0.2139 H   0  0  0  0  0  0  0  0  0  0  0  0
   -3.2042    2.5429   -1.2648 H   0  0  0  0  0  0  0  0  0  0  0  0
   -1.8499    2.2083   -2.3415 H   0  0  0  0  0  0  0  0  0  0  0  0
   -3.3478    5.2495    0.9412 H   0  0  0  0  0  0  0  0  0  0  0  0
   -1.7264    2.0477    1.9496 H   0  0  0  0  0  0  0  0  0  0  0  0
   -3.9032    0.1397   -1.8135 H   0  0  0  0  0  0  0  0  0  0  0  0
   -2.4148   -0.1165   -2.7277 H   0  0  0  0  0  0  0  0  0  0  0  0
   -2.6752   -1.4861    0.7715 H   0  0  0  0  0  0  0  0  0  0  0  0
   -2.8034   -3.8883    1.2244 H   0  0  0  0  0  0  0  0  0  0  0  0
   -3.1470   -5.5047   -0.6242 H   0  0  0  0  0  0  0  0  0  0  0  0
   -3.3671   -4.6853   -2.9549 H   0  0  0  0  0  0  0  0  0  0  0  0
   -3.2319   -2.2751   -3.4426 H   0  0  0  0  0  0  0  0  0  0  0  0
    1.2016   -1.5944   -0.7232 H   0  0  0  0  0  0  0  0  0  0  0  0
    3.5892   -2.1532   -0.7117 H   0  0  0  0  0  0  0  0  0  0  0  0
    5.9067   -1.6877    0.0605 H   0  0  0  0  0  0  0  0  0  0  0  0
    7.4766   -0.3292    1.3870 H   0  0  0  0  0  0  0  0  0  0  0  0
    6.6545    1.6115    2.6927 H   0  0  0  0  0  0  0  0  0  0  0  0
    4.2626    2.2011    2.6696 H   0  0  0  0  0  0  0  0  0  0  0  0
    1.9524    1.7573    1.8825 H   0  0  0  0  0  0  0  0  0  0  0  0
  1  2  2  0
  2  3  1  0
  3  4  1  0
  4  5  1  0
  5  6  1  0
  6  7  1  0
  7  8  2  0
  7  9  1  0
  7 10  1  0
  4 11  1  0
 11 12  1  0
 12 13  2  0
 13 14  1  0
 14 15  2  0
 15 16  1  0
 16 17  2  0
  2 18  1  0
 18 19  1  0
 19 20  2  0
 20 21  1  0
 21 22  2  0
 22 23  1  0
 23 24  2  0
 24 25  1  0
 25 26  2  0
 26 27  1  0
 17 12  1  0
 27 18  2  0
 26 21  1  0
  3 28  1  0
  4 29  1  1
  5 30  1  0
  5 31  1  0
  9 32  1  0
 10 33  1  0
 11 34  1  0
 11 35  1  0
 13 36  1  0
 14 37  1  0
 15 38  1  0
 16 39  1  0
 17 40  1  0
 19 41  1  0
 20 42  1  0
 22 43  1  0
 23 44  1  0
 24 45  1  0
 25 46  1  0
 27 47  1  0
M  END
$$$$
