
     RDKit          3D

 47 50  0  0  0  0  0  0  0  0999 V2000
   -1.4721    0.4531   -3.0034 O   0  0  0  0  0  0  0  0  0  0  0  0
   -1.6844   -0.2321   -2.0021 C   0  0  0  0  0  0  0  0  0  0  0  0
   -0.5093   -0.8833   -1.3732 C   0  0  0  0  0  0  0  0  0  0  0  0
    0.5964   -0.0585   -1.1072 C   0  0  0  0  0  0  0  0  0  0  0  0
    1.7609   -0.5698   -0.5169 C   0  0  0  0  0  0  0  0  0  0  0  0
    2.9107    0.3089   -0.2287 C   0  0  0  0  0  0  0  0  0  0  0  0
    3.5171    1.0186   -1.2807 C   0  0  0  0  0  0  0  0  0  0  0  0
    4.6020    1.8560   -1.0431 C   0  0  0  0  0  0  0  0  0  0  0  0
    5.1590    2.5146   -2.0666 F   0  0  0  0  0  0  0  0  0  0  0  0
    5.1188    2.0206    0.2321 C   0  0  0  0  0  0  0  0  0  0  0  0
    4.5309    1.3273    1.2969 C   0  0  0  0  0  0  0  0  0  0  0  0
    5.0882    1.5168    2.6389 N   0  0  0  0  0  0  0  0  0  0  0  0
    6.0838    2.2422    2.7600 O   0  0  0  0  0  0  0  0  0  0  0  0
    4.5242    0.9342    3.5787 O   0  0  0  0  0  0  0  0  0  0  0  0
    3.4315    0.4729    1.0757 C   0  0  0  0  0  0  0  0  0  0  0  0
    2.8029   -0.2264    2.0791 O   0  0  0  0  0  0  0  0  0  0  0  0
    1.7988   -1.9399   -0.2165 C   0  0  0  0  0  0  0  0  0  0  0  0
    0.6991   -2.7720   -0.4962 C   0  0  0  0  0  0  0  0  0  0  0  0
    0.8067   -4.1969   -0.1664 N   0  0  0  0  0  0  0  0  0  0  0  0
   -0.1947   -4.9035   -0.3656 O   0  0  0  0  0  0  0  0  0  0  0  0
    1.8807   -4.6157    0.2844 O   0  0  0  0  0  0  0  0  0  0  0  0
   -0.4661   -2.2501   -1.0809 C   0  0  0  0  0  0  0  0  0  0  0  0
   -1.5617   -3.0053   -1.4047 O   0  0  0  0  0  0  0  0  0  0  0  0
   -3.0674   -0.4097   -1.3761 C   0  0  0  0  0  0  0  0  0  0  0  0
   -4.0845    0.5867   -1.9852 C   0  0  0  0  0  0  0  0  0  0  0  0
   -3.9631    1.8822   -1.1682 C   0  0  0  0  0  0  0  0  0  0  0  0
   -3.6114    1.3299    0.1777 C   0  0  0  0  0  0  0  0  0  0  0  0
   -3.7067    1.9614    1.4060 C   0  0  0  0  0  0  0  0  0  0  0  0
   -3.3307    1.2500    2.5465 C   0  0  0  0  0  0  0  0  0  0  0  0
   -2.8696   -0.0713    2.4451 C   0  0  0  0  0  0  0  0  0  0  0  0
   -2.7659   -0.6960    1.2003 C   0  0  0  0  0  0  0  0  0  0  0  0
   -3.1244    0.0207    0.0690 C   0  0  0  0  0  0  0  0  0  0  0  0
    0.5314    1.0022   -1.3531 H   0  0  0  0  0  0  0  0  0  0  0  0
    3.1537    0.9214   -2.3021 H   0  0  0  0  0  0  0  0  0  0  0  0
    5.9670    2.6864    0.3687 H   0  0  0  0  0  0  0  0  0  0  0  0
    3.2031   -0.0183    2.9505 H   0  0  0  0  0  0  0  0  0  0  0  0
    2.6986   -2.3511    0.2421 H   0  0  0  0  0  0  0  0  0  0  0  0
   -1.4213   -3.9465   -1.1616 H   0  0  0  0  0  0  0  0  0  0  0  0
   -3.4343   -1.4277   -1.5289 H   0  0  0  0  0  0  0  0  0  0  0  0
   -3.9498    0.7662   -3.0566 H   0  0  0  0  0  0  0  0  0  0  0  0
   -5.0987    0.1808   -1.8568 H   0  0  0  0  0  0  0  0  0  0  0  0
   -4.9058    2.4364   -1.1600 H   0  0  0  0  0  0  0  0  0  0  0  0
   -3.1543    2.5187   -1.5410 H   0  0  0  0  0  0  0  0  0  0  0  0
   -4.0726    2.9801    1.4857 H   0  0  0  0  0  0  0  0  0  0  0  0
   -3.4036    1.7206    3.5241 H   0  0  0  0  0  0  0  0  0  0  0  0
   -2.5933   -0.6132    3.3465 H   0  0  0  0  0  0  0  0  0  0  0  0
   -2.4197   -1.7217    1.1336 H   0  0  0  0  0  0  0  0  0  0  0  0
  1  2  2  0
  2  3  1  0
  3  4  2  0
  4  5  1  0
  5  6  1  0
  6  7  1  0
  7  8  2  0
  8  9  1  0
  8 10  1  0
 10 11  2  0
 11 12  1  0
 12 13  2  0
 12 14  1  0
 11 15  1  0
 15 16  1  0
  5 17  2  0
 17 18  1  0
 18 19  1  0
 19 20  2  0
 19 21  1  0
 18 22  2  0
 22 23  1  0
  2 24  1  0
 24 25  1  0
 25 26  1  0
 26 27  1  0
 27 28  2  0
 28 29  1  0
 29 30  2  0
 30 31  1  0
 31 32  2  0
 22  3  1  0
 32 24  1  0
 15  6  2  0
 32 27  1  0
  4 33  1  0
  7 34  1  0
 10 35  1  0
 16 36  1  0
 17 37  1  0
 23 38  1  0
 24 39  1  0
 25 40  1  0
 25 41  1  0
 26 42  1  0
 26 43  1  0
 28 44  1  0
 29 45  1  0
 30 46  1  0
 31 47  1  0
M  CHG  4  12   1  14  -1  19   1  21  -1
M  END
$$$$
