
     RDKit          3D

 47 49  0  0  0  0  0  0  0  0999 V2000
    0.1003    1.8537   -0.5399 O   0  0  0  0  0  0  0  0  0  0  0  0
    0.2456    0.6335   -0.5781 C   0  0  0  0  0  0  0  0  0  0  0  0
   -0.7812   -0.2393   -0.8714 N   0  0  0  0  0  0  0  0  0  0  0  0
   -2.1299    0.2227   -1.2196 C   0  0  1  0  0  0  0  0  0  0  0  0
   -2.2628    0.4637   -2.7395 C   0  0  0  0  0  0  0  0  0  0  0  0
   -1.2104    1.2535   -3.2664 O   0  0  0  0  0  0  0  0  0  0  0  0
   -1.2920    2.8492   -3.2407 P   0  0  0  0  0  0  0  0  0  0  0  0
   -0.1413    3.5877   -3.8292 O   0  0  0  0  0  0  0  0  0  0  0  0
   -2.6704    3.1703   -3.9873 O   0  0  0  0  0  0  0  0  0  0  0  0
   -1.6447    3.2446   -1.7384 O   0  0  0  0  0  0  0  0  0  0  0  0
   -3.2074   -0.7824   -0.7644 C   0  0  0  0  0  0  0  0  0  0  0  0
   -3.2325   -0.9852    0.7312 C   0  0  0  0  0  0  0  0  0  0  0  0
   -4.0238   -0.1720    1.5559 C   0  0  0  0  0  0  0  0  0  0  0  0
   -4.0239   -0.3558    2.9429 C   0  0  0  0  0  0  0  0  0  0  0  0
   -3.2310   -1.3489    3.5190 C   0  0  0  0  0  0  0  0  0  0  0  0
   -2.4395   -2.1510    2.7050 C   0  0  0  0  0  0  0  0  0  0  0  0
   -1.6730   -3.0994    3.2608 F   0  0  0  0  0  0  0  0  0  0  0  0
   -2.4375   -1.9712    1.3262 C   0  0  0  0  0  0  0  0  0  0  0  0
   -1.6527   -2.7420    0.5563 F   0  0  0  0  0  0  0  0  0  0  0  0
    1.5669    0.0260   -0.2635 C   0  0  0  0  0  0  0  0  0  0  0  0
    1.9775   -1.1877   -0.8226 C   0  0  0  0  0  0  0  0  0  0  0  0
    3.2282   -1.7189   -0.4951 C   0  0  0  0  0  0  0  0  0  0  0  0
    4.0883   -1.0439    0.3856 C   0  0  0  0  0  0  0  0  0  0  0  0
    5.3465   -1.5673    0.7236 C   0  0  0  0  0  0  0  0  0  0  0  0
    6.1933   -0.8814    1.5958 C   0  0  0  0  0  0  0  0  0  0  0  0
    5.7942    0.3359    2.1397 C   0  0  0  0  0  0  0  0  0  0  0  0
    4.5468    0.8703    1.8136 C   0  0  0  0  0  0  0  0  0  0  0  0
    3.6823    0.1923    0.9392 C   0  0  0  0  0  0  0  0  0  0  0  0
    2.4241    0.7168    0.6028 C   0  0  0  0  0  0  0  0  0  0  0  0
   -0.6223   -1.2379   -0.8093 H   0  0  0  0  0  0  0  0  0  0  0  0
   -2.2933    1.1665   -0.6906 H   0  0  0  0  0  0  0  0  0  0  0  0
   -3.2330    0.9150   -2.9732 H   0  0  0  0  0  0  0  0  0  0  0  0
   -2.2211   -0.4959   -3.2673 H   0  0  0  0  0  0  0  0  0  0  0  0
   -2.6754    4.1058   -4.2592 H   0  0  0  0  0  0  0  0  0  0  0  0
   -0.8796    2.9997   -1.1579 H   0  0  0  0  0  0  0  0  0  0  0  0
   -3.0550   -1.7526   -1.2557 H   0  0  0  0  0  0  0  0  0  0  0  0
   -4.1979   -0.4373   -1.0889 H   0  0  0  0  0  0  0  0  0  0  0  0
   -4.6427    0.6139    1.1258 H   0  0  0  0  0  0  0  0  0  0  0  0
   -4.6406    0.2804    3.5743 H   0  0  0  0  0  0  0  0  0  0  0  0
   -3.2214   -1.4984    4.5942 H   0  0  0  0  0  0  0  0  0  0  0  0
    1.3552   -1.7217   -1.5343 H   0  0  0  0  0  0  0  0  0  0  0  0
    3.5323   -2.6636   -0.9415 H   0  0  0  0  0  0  0  0  0  0  0  0
    5.6785   -2.5159    0.3076 H   0  0  0  0  0  0  0  0  0  0  0  0
    7.1652   -1.2975    1.8485 H   0  0  0  0  0  0  0  0  0  0  0  0
    6.4537    0.8719    2.8174 H   0  0  0  0  0  0  0  0  0  0  0  0
    4.2540    1.8240    2.2477 H   0  0  0  0  0  0  0  0  0  0  0  0
    2.1037    1.6696    1.0213 H   0  0  0  0  0  0  0  0  0  0  0  0
  1  2  2  0
  2  3  1  0
  3  4  1  0
  4  5  1  0
  5  6  1  0
  6  7  1  0
  7  8  2  0
  7  9  1  0
  7 10  1  0
  4 11  1  0
 11 12  1  0
 12 13  2  0
 13 14  1  0
 14 15  2  0
 15 16  1  0
 16 17  1  0
 16 18  2  0
 18 19  1  0
  2 20  1  0
 20 21  1  0
 21 22  2  0
 22 23  1  0
 23 24  2  0
 24 25  1  0
 25 26  2  0
 26 27  1  0
 27 28  2  0
 28 29  1  0
 18 12  1  0
 29 20  2  0
 28 23  1  0
  3 30  1  0
  4 31  1  1
  5 32  1  0
  5 33  1  0
  9 34  1  0
 10 35  1  0
 11 36  1  0
 11 37  1  0
 13 38  1  0
 14 39  1  0
 15 40  1  0
 21 41  1  0
 22 42  1  0
 24 43  1  0
 25 44  1  0
 26 45  1  0
 27 46  1  0
 29 47  1  0
M  END
$$$$
