
     RDKit          3D

 48 51  0  0  0  0  0  0  0  0999 V2000
   -1.5200    0.1653   -3.1750 O   0  0  0  0  0  0  0  0  0  0  0  0
   -1.2732    0.7205   -2.1032 C   0  0  0  0  0  0  0  0  0  0  0  0
   -2.3873    0.9933   -1.1009 C   0  0  0  0  0  0  0  0  0  0  0  0
   -2.0289    1.8318    0.1121 C   0  0  0  0  0  0  0  0  0  0  0  0
   -2.3005    3.2109    0.0568 C   0  0  0  0  0  0  0  0  0  0  0  0
   -1.9825    4.0419    1.1247 C   0  0  0  0  0  0  0  0  0  0  0  0
   -1.3816    3.5100    2.2616 C   0  0  0  0  0  0  0  0  0  0  0  0
   -1.0853    2.1422    2.3475 C   0  0  0  0  0  0  0  0  0  0  0  0
   -0.4652    1.6296    3.4992 C   0  0  0  0  0  0  0  0  0  0  0  0
   -0.1478    0.2768    3.6024 C   0  0  0  0  0  0  0  0  0  0  0  0
   -0.4482   -0.5810    2.5543 C   0  0  0  0  0  0  0  0  0  0  0  0
   -1.0700   -0.0870    1.4053 C   0  0  0  0  0  0  0  0  0  0  0  0
   -1.4063    1.2794    1.2686 C   0  0  0  0  0  0  0  0  0  0  0  0
   -0.0009    1.0698   -1.7494 N   0  0  0  0  0  0  0  0  0  0  0  0
    1.1789    0.8955   -2.6038 C   0  0  2  0  0  0  0  0  0  0  0  0
    1.4520   -0.5524   -3.0482 C   0  0  0  0  0  0  0  0  0  0  0  0
    1.3503   -1.5568   -1.9405 C   0  0  0  0  0  0  0  0  0  0  0  0
    2.2454   -1.9297   -0.9595 C   0  0  0  0  0  0  0  0  0  0  0  0
    1.6204   -2.9181   -0.1504 C   0  0  0  0  0  0  0  0  0  0  0  0
    2.0218   -3.6497    0.9857 C   0  0  0  0  0  0  0  0  0  0  0  0
    1.1333   -4.5688    1.5555 C   0  0  0  0  0  0  0  0  0  0  0  0
   -0.1278   -4.7557    1.0038 C   0  0  0  0  0  0  0  0  0  0  0  0
   -0.9613   -5.6396    1.5698 F   0  0  0  0  0  0  0  0  0  0  0  0
   -0.5545   -4.0501   -0.1203 C   0  0  0  0  0  0  0  0  0  0  0  0
    0.3459   -3.1352   -0.6773 C   0  0  0  0  0  0  0  0  0  0  0  0
    0.2122   -2.3084   -1.7683 N   0  0  0  0  0  0  0  0  0  0  0  0
    2.4191    1.4699   -1.9096 C   0  0  0  0  0  0  0  0  0  0  0  0
    3.5633    1.4600   -2.3363 O   0  0  0  0  0  0  0  0  0  0  0  0
    2.1488    2.0570   -0.7194 O   0  0  0  0  0  0  0  0  0  0  0  0
   -2.8053    0.0319   -0.7817 H   0  0  0  0  0  0  0  0  0  0  0  0
   -3.1932    1.4946   -1.6534 H   0  0  0  0  0  0  0  0  0  0  0  0
   -2.7670    3.6466   -0.8251 H   0  0  0  0  0  0  0  0  0  0  0  0
   -2.2027    5.1051    1.0729 H   0  0  0  0  0  0  0  0  0  0  0  0
   -1.1411    4.1780    3.0862 H   0  0  0  0  0  0  0  0  0  0  0  0
   -0.2204    2.2869    4.3310 H   0  0  0  0  0  0  0  0  0  0  0  0
    0.3337   -0.1045    4.4988 H   0  0  0  0  0  0  0  0  0  0  0  0
   -0.1999   -1.6373    2.6227 H   0  0  0  0  0  0  0  0  0  0  0  0
   -1.2795   -0.7988    0.6117 H   0  0  0  0  0  0  0  0  0  0  0  0
    0.1829    1.5004   -0.8462 H   0  0  0  0  0  0  0  0  0  0  0  0
    1.0095    1.5181   -3.4910 H   0  0  0  0  0  0  0  0  0  0  0  0
    0.7439   -0.8267   -3.8405 H   0  0  0  0  0  0  0  0  0  0  0  0
    2.4467   -0.6301   -3.5054 H   0  0  0  0  0  0  0  0  0  0  0  0
    3.2433   -1.5305   -0.8286 H   0  0  0  0  0  0  0  0  0  0  0  0
    3.0087   -3.5030    1.4145 H   0  0  0  0  0  0  0  0  0  0  0  0
    1.4242   -5.1426    2.4298 H   0  0  0  0  0  0  0  0  0  0  0  0
   -1.5419   -4.2154   -0.5348 H   0  0  0  0  0  0  0  0  0  0  0  0
   -0.6151   -2.2408   -2.3495 H   0  0  0  0  0  0  0  0  0  0  0  0
    3.0230    2.3618   -0.3967 H   0  0  0  0  0  0  0  0  0  0  0  0
  1  2  2  0
  2  3  1  0
  3  4  1  0
  4  5  2  0
  5  6  1  0
  6  7  2  0
  7  8  1  0
  8  9  2  0
  9 10  1  0
 10 11  2  0
 11 12  1  0
 12 13  2  0
  2 14  1  0
 14 15  1  0
 15 16  1  0
 16 17  1  0
 17 18  2  0
 18 19  1  0
 19 20  2  0
 20 21  1  0
 21 22  2  0
 22 23  1  0
 22 24  1  0
 24 25  2  0
 25 26  1  0
 15 27  1  0
 27 28  2  0
 27 29  1  0
 13  4  1  0
 26 17  1  0
 13  8  1  0
 25 19  1  0
  3 30  1  0
  3 31  1  0
  5 32  1  0
  6 33  1  0
  7 34  1  0
  9 35  1  0
 10 36  1  0
 11 37  1  0
 12 38  1  0
 14 39  1  0
 15 40  1  6
 16 41  1  0
 16 42  1  0
 18 43  1  0
 20 44  1  0
 21 45  1  0
 24 46  1  0
 26 47  1  0
 29 48  1  0
M  END
$$$$
