
     RDKit          3D

 37 38  0  0  0  0  0  0  0  0999 V2000
    0.1039    1.9876    1.2195 S   0  0  0  0  0  0  0  0  0  0  0  0
   -0.8760    0.6319    0.9791 C   0  0  0  0  0  0  0  0  0  0  0  0
   -0.2175   -0.9560    1.4069 S   0  0  0  0  0  0  0  0  0  0  0  0
    0.7345   -1.2156   -0.0642 C   0  0  0  0  0  0  0  0  0  0  0  0
   -0.0698   -1.7767   -1.4405 S   0  0  0  0  0  0  0  0  0  0  0  0
    2.1239   -0.9717    0.0228 N   0  0  0  0  0  0  0  0  0  0  0  0
    2.9985   -1.1703   -1.1475 C   0  0  0  0  0  0  0  0  0  0  0  0
    4.1750   -0.1978   -1.1744 C   0  0  0  0  0  0  0  0  0  0  0  0
    4.9574   -0.2314    0.1297 C   0  0  0  0  0  0  0  0  0  0  0  0
    4.0226    0.0331    1.3006 C   0  0  0  0  0  0  0  0  0  0  0  0
    2.8494   -0.9431    1.3080 C   0  0  0  0  0  0  0  0  0  0  0  0
   -2.2044    0.6640    0.4977 N   0  0  0  0  0  0  0  0  0  0  0  0
   -3.1655   -0.4306    0.7364 C   0  0  0  0  0  0  0  0  0  0  0  0
   -4.1606   -0.6010   -0.4082 C   0  0  0  0  0  0  0  0  0  0  0  0
   -4.8644    0.7086   -0.7314 C   0  0  0  0  0  0  0  0  0  0  0  0
   -3.8354    1.7905   -1.0221 C   0  0  0  0  0  0  0  0  0  0  0  0
   -2.8405    1.9410    0.1260 C   0  0  0  0  0  0  0  0  0  0  0  0
    2.4477   -1.0448   -2.0827 H   0  0  0  0  0  0  0  0  0  0  0  0
    3.3584   -2.2059   -1.1113 H   0  0  0  0  0  0  0  0  0  0  0  0
    4.8373   -0.4408   -2.0126 H   0  0  0  0  0  0  0  0  0  0  0  0
    3.7998    0.8194   -1.3439 H   0  0  0  0  0  0  0  0  0  0  0  0
    5.7530    0.5215    0.1085 H   0  0  0  0  0  0  0  0  0  0  0  0
    5.4387   -1.2093    0.2504 H   0  0  0  0  0  0  0  0  0  0  0  0
    3.6421    1.0599    1.2351 H   0  0  0  0  0  0  0  0  0  0  0  0
    4.5762   -0.0463    2.2427 H   0  0  0  0  0  0  0  0  0  0  0  0
    3.2093   -1.9641    1.4870 H   0  0  0  0  0  0  0  0  0  0  0  0
    2.2064   -0.6875    2.1503 H   0  0  0  0  0  0  0  0  0  0  0  0
   -3.6965   -0.1840    1.6644 H   0  0  0  0  0  0  0  0  0  0  0  0
   -2.6784   -1.3916    0.9025 H   0  0  0  0  0  0  0  0  0  0  0  0
   -3.6319   -0.9576   -1.3008 H   0  0  0  0  0  0  0  0  0  0  0  0
   -4.9006   -1.3649   -0.1448 H   0  0  0  0  0  0  0  0  0  0  0  0
   -5.5229    0.5759   -1.5968 H   0  0  0  0  0  0  0  0  0  0  0  0
   -5.4949    1.0113    0.1132 H   0  0  0  0  0  0  0  0  0  0  0  0
   -4.3402    2.7460   -1.2024 H   0  0  0  0  0  0  0  0  0  0  0  0
   -3.2920    1.5342   -1.9404 H   0  0  0  0  0  0  0  0  0  0  0  0
   -3.3445    2.3249    1.0216 H   0  0  0  0  0  0  0  0  0  0  0  0
   -2.0981    2.6826   -0.1784 H   0  0  0  0  0  0  0  0  0  0  0  0
  1  2  2  0
  2  3  1  0
  3  4  1  0
  4  5  2  0
  4  6  1  0
  6  7  1  0
  7  8  1  0
  8  9  1  0
  9 10  1  0
 10 11  1  0
  2 12  1  0
 12 13  1  0
 13 14  1  0
 14 15  1  0
 15 16  1  0
 16 17  1  0
 11  6  1  0
 17 12  1  0
  7 18  1  0
  7 19  1  0
  8 20  1  0
  8 21  1  0
  9 22  1  0
  9 23  1  0
 10 24  1  0
 10 25  1  0
 11 26  1  0
 11 27  1  0
 13 28  1  0
 13 29  1  0
 14 30  1  0
 14 31  1  0
 15 32  1  0
 15 33  1  0
 16 34  1  0
 16 35  1  0
 17 36  1  0
 17 37  1  0
M  END
$$$$
