
     RDKit          3D

 56 59  0  0  0  0  0  0  0  0999 V2000
    3.4419   -1.5599   -3.2656 C   0  0  0  0  0  0  0  0  0  0  0  0
    2.8223   -1.8339   -2.0099 O   0  0  0  0  0  0  0  0  0  0  0  0
    3.6576   -2.3584   -1.0711 C   0  0  0  0  0  0  0  0  0  0  0  0
    4.8529   -2.5775   -1.2482 O   0  0  0  0  0  0  0  0  0  0  0  0
    2.9443   -2.6319    0.2636 C   0  0  1  0  0  0  0  0  0  0  0  0
    3.7371   -1.9515    1.3905 C   0  0  0  0  0  0  0  0  0  0  0  0
    3.7478   -0.4619    1.2384 C   0  0  0  0  0  0  0  0  0  0  0  0
    2.6876    0.3125    1.1078 N   0  0  0  0  0  0  0  0  0  0  0  0
    3.1806    1.5864    0.9569 C   0  0  0  0  0  0  0  0  0  0  0  0
    2.4974    2.7977    0.7797 C   0  0  0  0  0  0  0  0  0  0  0  0
    3.2442    3.9749    0.6418 C   0  0  0  0  0  0  0  0  0  0  0  0
    4.6407    3.9452    0.6785 C   0  0  0  0  0  0  0  0  0  0  0  0
    5.3394    2.7447    0.8534 C   0  0  0  0  0  0  0  0  0  0  0  0
    4.5704    1.5873    0.9898 C   0  0  0  0  0  0  0  0  0  0  0  0
    4.9076    0.2704    1.1693 N   0  0  0  0  0  0  0  0  0  0  0  0
    1.5441   -2.2069    0.2872 N   0  0  0  0  0  0  0  0  0  0  0  0
    0.5450   -2.9800   -0.2504 C   0  0  0  0  0  0  0  0  0  0  0  0
    0.7395   -4.1308   -0.6300 O   0  0  0  0  0  0  0  0  0  0  0  0
   -0.7504   -2.3217   -0.3430 C   0  0  0  0  0  0  0  0  0  0  0  0
   -1.1725   -1.0441    0.1410 C   0  0  0  0  0  0  0  0  0  0  0  0
   -2.5002   -0.8866   -0.2044 C   0  0  0  0  0  0  0  0  0  0  0  0
   -3.4909    0.1696   -0.0068 C   0  0  0  0  0  0  0  0  0  0  0  0
   -3.1706    1.3224    0.7246 C   0  0  0  0  0  0  0  0  0  0  0  0
   -4.1136    2.3385    0.9184 C   0  0  0  0  0  0  0  0  0  0  0  0
   -5.4000    2.2289    0.3774 C   0  0  0  0  0  0  0  0  0  0  0  0
   -6.4249    3.3086    0.6087 C   0  0  0  0  0  0  0  0  0  0  0  0
   -7.1948    3.0553    1.8206 N   0  0  0  0  0  0  0  0  0  0  0  0
   -5.7295    1.0772   -0.3465 C   0  0  0  0  0  0  0  0  0  0  0  0
   -4.7846    0.0632   -0.5376 C   0  0  0  0  0  0  0  0  0  0  0  0
   -2.9222   -1.9995   -0.8724 O   0  0  0  0  0  0  0  0  0  0  0  0
   -1.8715   -2.8610   -0.9513 C   0  0  0  0  0  0  0  0  0  0  0  0
   -2.1332   -4.1411   -1.6450 C   0  0  0  0  0  0  0  0  0  0  0  0
    4.2316   -0.8114   -3.1470 H   0  0  0  0  0  0  0  0  0  0  0  0
    2.6804   -1.1561   -3.9385 H   0  0  0  0  0  0  0  0  0  0  0  0
    3.8409   -2.4793   -3.7056 H   0  0  0  0  0  0  0  0  0  0  0  0
    2.9653   -3.7188    0.4085 H   0  0  0  0  0  0  0  0  0  0  0  0
    4.7646   -2.3347    1.4156 H   0  0  0  0  0  0  0  0  0  0  0  0
    3.2817   -2.1936    2.3588 H   0  0  0  0  0  0  0  0  0  0  0  0
    1.4142    2.8154    0.7494 H   0  0  0  0  0  0  0  0  0  0  0  0
    2.7285    4.9224    0.5035 H   0  0  0  0  0  0  0  0  0  0  0  0
    5.1970    4.8742    0.5683 H   0  0  0  0  0  0  0  0  0  0  0  0
    6.4233    2.7235    0.8805 H   0  0  0  0  0  0  0  0  0  0  0  0
    5.8474   -0.0975    1.2196 H   0  0  0  0  0  0  0  0  0  0  0  0
    1.4014   -1.2030    0.3625 H   0  0  0  0  0  0  0  0  0  0  0  0
   -0.5776   -0.3229    0.6836 H   0  0  0  0  0  0  0  0  0  0  0  0
   -2.1820    1.4463    1.1597 H   0  0  0  0  0  0  0  0  0  0  0  0
   -3.8354    3.2175    1.4960 H   0  0  0  0  0  0  0  0  0  0  0  0
   -5.9322    4.2847    0.6846 H   0  0  0  0  0  0  0  0  0  0  0  0
   -7.1025    3.3741   -0.2503 H   0  0  0  0  0  0  0  0  0  0  0  0
   -7.6378    2.1407    1.7387 H   0  0  0  0  0  0  0  0  0  0  0  0
   -6.5496    2.9717    2.6051 H   0  0  0  0  0  0  0  0  0  0  0  0
   -6.7250    0.9593   -0.7690 H   0  0  0  0  0  0  0  0  0  0  0  0
   -5.0722   -0.8175   -1.1089 H   0  0  0  0  0  0  0  0  0  0  0  0
   -3.1580   -4.1838   -2.0275 H   0  0  0  0  0  0  0  0  0  0  0  0
   -1.9935   -4.9831   -0.9601 H   0  0  0  0  0  0  0  0  0  0  0  0
   -1.4522   -4.2642   -2.4927 H   0  0  0  0  0  0  0  0  0  0  0  0
  1  2  1  0
  2  3  1  0
  3  4  2  0
  3  5  1  0
  5  6  1  0
  6  7  1  0
  7  8  2  0
  8  9  1  0
  9 10  2  0
 10 11  1  0
 11 12  2  0
 12 13  1  0
 13 14  2  0
 14 15  1  0
  5 16  1  0
 16 17  1  0
 17 18  2  0
 17 19  1  0
 19 20  1  0
 20 21  2  0
 21 22  1  0
 22 23  1  0
 23 24  2  0
 24 25  1  0
 25 26  1  0
 26 27  1  0
 25 28  2  0
 28 29  1  0
 21 30  1  0
 30 31  1  0
 31 32  1  0
 15  7  1  0
 31 19  2  0
 14  9  1  0
 29 22  2  0
  1 33  1  0
  1 34  1  0
  1 35  1  0
  5 36  1  1
  6 37  1  0
  6 38  1  0
 10 39  1  0
 11 40  1  0
 12 41  1  0
 13 42  1  0
 15 43  1  0
 16 44  1  0
 20 45  1  0
 23 46  1  0
 24 47  1  0
 26 48  1  0
 26 49  1  0
 27 50  1  0
 27 51  1  0
 28 52  1  0
 29 53  1  0
 32 54  1  0
 32 55  1  0
 32 56  1  0
M  END
$$$$
