
     RDKit          3D

 44 46  0  0  0  0  0  0  0  0999 V2000
   -0.6172    1.0330   -1.2444 O   0  0  0  0  0  0  0  0  0  0  0  0
    0.0032    0.6538   -0.2502 C   0  0  0  0  0  0  0  0  0  0  0  0
   -0.6018    0.5066    0.9780 N   0  0  0  0  0  0  0  0  0  0  0  0
   -2.0159    0.7355    1.3001 C   0  0  1  0  0  0  0  0  0  0  0  0
   -2.3860    2.2307    1.3859 C   0  0  0  0  0  0  0  0  0  0  0  0
   -2.5775    2.8073    0.1092 O   0  0  0  0  0  0  0  0  0  0  0  0
   -1.4439    3.7720   -0.4749 P   0  0  0  0  0  0  0  0  0  0  0  0
   -0.1143    3.7902    0.1956 O   0  0  0  0  0  0  0  0  0  0  0  0
   -2.1731    5.1901   -0.5453 O   0  0  0  0  0  0  0  0  0  0  0  0
   -1.4164    3.3568   -2.0160 O   0  0  0  0  0  0  0  0  0  0  0  0
   -2.9916   -0.0487    0.3943 C   0  0  0  0  0  0  0  0  0  0  0  0
   -2.7599   -1.5417    0.4180 C   0  0  0  0  0  0  0  0  0  0  0  0
   -2.2128   -2.2016   -0.6932 C   0  0  0  0  0  0  0  0  0  0  0  0
   -1.9872   -3.5816   -0.6608 C   0  0  0  0  0  0  0  0  0  0  0  0
   -2.3068   -4.3164    0.4809 C   0  0  0  0  0  0  0  0  0  0  0  0
   -2.8501   -3.6662    1.5832 C   0  0  0  0  0  0  0  0  0  0  0  0
   -3.1522   -4.3742    2.6804 F   0  0  0  0  0  0  0  0  0  0  0  0
   -3.0751   -2.2939    1.5539 C   0  0  0  0  0  0  0  0  0  0  0  0
   -3.5941   -1.6834    2.6301 F   0  0  0  0  0  0  0  0  0  0  0  0
    1.4230    0.3284   -0.2996 C   0  0  0  0  0  0  0  0  0  0  0  0
    2.2551    0.4430   -1.3956 C   0  0  0  0  0  0  0  0  0  0  0  0
    3.6050    0.0356   -1.1350 C   0  0  0  0  0  0  0  0  0  0  0  0
    4.7381    0.0052   -1.9825 C   0  0  0  0  0  0  0  0  0  0  0  0
    5.9719   -0.4396   -1.4981 C   0  0  0  0  0  0  0  0  0  0  0  0
    6.0979   -0.8560   -0.1801 C   0  0  0  0  0  0  0  0  0  0  0  0
    4.9969   -0.8364    0.6792 C   0  0  0  0  0  0  0  0  0  0  0  0
    3.7561   -0.3874    0.1866 C   0  0  0  0  0  0  0  0  0  0  0  0
    2.2740   -0.2758    1.0530 S   0  0  0  0  0  0  0  0  0  0  0  0
    0.0033    0.2229    1.7401 H   0  0  0  0  0  0  0  0  0  0  0  0
   -2.1078    0.3467    2.3228 H   0  0  0  0  0  0  0  0  0  0  0  0
   -1.6419    2.7869    1.9665 H   0  0  0  0  0  0  0  0  0  0  0  0
   -3.3387    2.3292    1.9183 H   0  0  0  0  0  0  0  0  0  0  0  0
   -1.6017    5.8437   -0.9840 H   0  0  0  0  0  0  0  0  0  0  0  0
   -1.0983    2.4239   -2.0636 H   0  0  0  0  0  0  0  0  0  0  0  0
   -2.9432    0.3105   -0.6402 H   0  0  0  0  0  0  0  0  0  0  0  0
   -4.0236    0.1394    0.7195 H   0  0  0  0  0  0  0  0  0  0  0  0
   -1.9550   -1.6418   -1.5915 H   0  0  0  0  0  0  0  0  0  0  0  0
   -1.5614   -4.0815   -1.5281 H   0  0  0  0  0  0  0  0  0  0  0  0
   -2.1363   -5.3877    0.5182 H   0  0  0  0  0  0  0  0  0  0  0  0
    1.9107    0.8097   -2.3558 H   0  0  0  0  0  0  0  0  0  0  0  0
    4.6521    0.3306   -3.0164 H   0  0  0  0  0  0  0  0  0  0  0  0
    6.8355   -0.4572   -2.1586 H   0  0  0  0  0  0  0  0  0  0  0  0
    7.0614   -1.1994    0.1894 H   0  0  0  0  0  0  0  0  0  0  0  0
    5.0994   -1.1615    1.7107 H   0  0  0  0  0  0  0  0  0  0  0  0
  1  2  2  0
  2  3  1  0
  3  4  1  0
  4  5  1  0
  5  6  1  0
  6  7  1  0
  7  8  2  0
  7  9  1  0
  7 10  1  0
  4 11  1  0
 11 12  1  0
 12 13  2  0
 13 14  1  0
 14 15  2  0
 15 16  1  0
 16 17  1  0
 16 18  2  0
 18 19  1  0
  2 20  1  0
 20 21  2  0
 21 22  1  0
 22 23  2  0
 23 24  1  0
 24 25  2  0
 25 26  1  0
 26 27  2  0
 27 28  1  0
 18 12  1  0
 28 20  1  0
 27 22  1  0
  3 29  1  0
  4 30  1  1
  5 31  1  0
  5 32  1  0
  9 33  1  0
 10 34  1  0
 11 35  1  0
 11 36  1  0
 13 37  1  0
 14 38  1  0
 15 39  1  0
 21 40  1  0
 23 41  1  0
 24 42  1  0
 25 43  1  0
 26 44  1  0
M  END
$$$$
