
     RDKit          3D

335345  0  0  0  0  0  0  0  0999 V2000
   12.9348    5.2733   -0.5580 C   0  0  0  0  0  0  0  0  0  0  0  0
   12.6622    3.8244   -0.1679 C   0  0  2  0  0  0  0  0  0  0  0  0
   12.5501    3.0629   -1.3773 O   0  0  0  0  0  0  0  0  0  0  0  0
   11.3851    3.6905    0.7010 C   0  0  1  0  0  0  0  0  0  0  0  0
   10.1890    4.0420   -0.0742 N   0  0  0  0  0  0  0  0  0  0  0  0
    9.0775    4.5584    0.5552 C   0  0  0  0  0  0  0  0  0  0  0  0
    9.0918    4.9460    1.7246 O   0  0  0  0  0  0  0  0  0  0  0  0
    7.7889    4.5726   -0.2932 C   0  0  2  0  0  0  0  0  0  0  0  0
    7.9043    5.4094   -1.5830 C   0  0  0  0  0  0  0  0  0  0  0  0
    8.4392    6.8187   -1.4352 C   0  0  0  0  0  0  0  0  0  0  0  0
    7.7232    7.8067   -0.7426 C   0  0  0  0  0  0  0  0  0  0  0  0
    8.2260    9.1065   -0.6356 C   0  0  0  0  0  0  0  0  0  0  0  0
    9.4369    9.4235   -1.2286 C   0  0  0  0  0  0  0  0  0  0  0  0
    9.9160   10.6726   -1.1312 F   0  0  0  0  0  0  0  0  0  0  0  0
   10.1610    8.4691   -1.9294 C   0  0  0  0  0  0  0  0  0  0  0  0
    9.6607    7.1682   -2.0342 C   0  0  0  0  0  0  0  0  0  0  0  0
    6.6807    4.9945    0.5644 N   0  0  0  0  0  0  0  0  0  0  0  0
    5.3955    4.5496    0.3491 C   0  0  0  0  0  0  0  0  0  0  0  0
    5.0923    3.8623   -0.6264 O   0  0  0  0  0  0  0  0  0  0  0  0
    4.3559    5.0104    1.3900 C   0  0  1  0  0  0  0  0  0  0  0  0
    4.1010    6.5305    1.2993 C   0  0  0  0  0  0  0  0  0  0  0  0
    3.2114    6.9782    0.1554 C   0  0  0  0  0  0  0  0  0  0  0  0
    1.9086    7.4288    0.4173 C   0  0  0  0  0  0  0  0  0  0  0  0
    1.0668    7.8278   -0.6232 C   0  0  0  0  0  0  0  0  0  0  0  0
    1.5231    7.7892   -1.9373 C   0  0  0  0  0  0  0  0  0  0  0  0
    2.8163    7.3542   -2.2138 C   0  0  0  0  0  0  0  0  0  0  0  0
    3.6601    6.9576   -1.1722 C   0  0  0  0  0  0  0  0  0  0  0  0
    3.1594    4.1930    1.2058 N   0  0  0  0  0  0  0  0  0  0  0  0
    2.0720    4.2837    2.0339 C   0  0  0  0  0  0  0  0  0  0  0  0
    2.0310    4.9628    3.0490 O   0  0  0  0  0  0  0  0  0  0  0  0
    0.8718    3.5527    1.5712 C   0  0  0  0  0  0  0  0  0  0  0  0
   -0.3546    4.2241    1.5634 C   0  0  0  0  0  0  0  0  0  0  0  0
   -1.5034    3.5684    1.1117 C   0  0  0  0  0  0  0  0  0  0  0  0
   -1.4343    2.2216    0.7294 C   0  0  0  0  0  0  0  0  0  0  0  0
   -0.2016    1.5519    0.7498 C   0  0  0  0  0  0  0  0  0  0  0  0
    0.9588    2.2177    1.1602 C   0  0  0  0  0  0  0  0  0  0  0  0
   -0.1864    0.1168    0.3816 C   0  0  0  0  0  0  0  0  0  0  0  0
   -1.1060   -0.6225    0.7302 O   0  0  0  0  0  0  0  0  0  0  0  0
    0.8902   -0.3272   -0.3534 N   0  0  0  0  0  0  0  0  0  0  0  0
    1.0533   -1.7585   -0.5840 C   0  0  0  0  0  0  0  0  0  0  0  0
    1.5710   -2.4618    0.6750 C   0  0  2  0  0  0  0  0  0  0  0  0
    3.0347   -2.4657    0.7223 N   0  0  0  0  0  0  0  0  0  0  0  0
    3.6639   -2.5992    1.9496 C   0  0  0  0  0  0  0  0  0  0  0  0
    3.0605   -2.4783    3.0123 O   0  0  0  0  0  0  0  0  0  0  0  0
    5.1185   -3.1085    1.8850 C   0  0  1  0  0  0  0  0  0  0  0  0
    5.1030   -4.6361    1.8761 C   0  0  0  0  0  0  0  0  0  0  0  0
    5.8422   -2.6249    0.7119 N   0  0  0  0  0  0  0  0  0  0  0  0
    6.4360   -1.3829    0.7029 C   0  0  0  0  0  0  0  0  0  0  0  0
    6.1849   -0.5159    1.5327 O   0  0  0  0  0  0  0  0  0  0  0  0
    7.3922   -1.1340   -0.4728 C   0  0  0  0  0  0  0  0  0  0  0  0
    8.5001   -2.0824   -0.5074 N   0  0  0  0  0  0  0  0  0  0  0  0
    8.3521   -3.3463   -1.0362 C   0  0  0  0  0  0  0  0  0  0  0  0
    7.2419   -3.7920   -1.3328 O   0  0  0  0  0  0  0  0  0  0  0  0
    9.6400   -4.2119   -1.1308 C   0  0  2  0  0  0  0  0  0  0  0  0
    9.4320   -5.4679   -0.2693 C   0  0  0  0  0  0  0  0  0  0  0  0
   10.4783   -6.5748   -0.4647 C   0  0  0  0  0  0  0  0  0  0  0  0
   11.8522   -6.3050    0.1548 C   0  0  0  0  0  0  0  0  0  0  0  0
   11.7154   -5.9500    1.5567 N   0  0  0  0  0  0  0  0  0  0  0  0
   12.7047   -5.4461    2.3220 C   0  0  0  0  0  0  0  0  0  0  0  0
   13.8591   -5.0252    1.9650 N   0  0  0  0  0  0  0  0  0  0  0  0
   12.3542   -5.4010    3.6198 N   0  0  0  0  0  0  0  0  0  0  0  0
   10.8382   -3.4721   -0.7296 N   0  0  0  0  0  0  0  0  0  0  0  0
   11.5685   -2.7433   -1.6469 C   0  0  0  0  0  0  0  0  0  0  0  0
   11.2848   -2.7614   -2.8405 O   0  0  0  0  0  0  0  0  0  0  0  0
   12.8123   -2.0036   -1.1050 C   0  0  2  0  0  0  0  0  0  0  0  0
   14.0615   -2.8875   -1.1205 C   0  0  0  0  0  0  0  0  0  0  0  0
   14.5670   -3.2524   -2.4948 C   0  0  0  0  0  0  0  0  0  0  0  0
   14.4741   -4.5682   -2.9609 C   0  0  0  0  0  0  0  0  0  0  0  0
   14.9856   -4.9116   -4.2134 C   0  0  0  0  0  0  0  0  0  0  0  0
   15.5991   -3.9475   -5.0288 C   0  0  0  0  0  0  0  0  0  0  0  0
   16.1341   -4.2847   -6.2803 C   0  0  0  0  0  0  0  0  0  0  0  0
   16.7446   -3.3157   -7.0777 C   0  0  0  0  0  0  0  0  0  0  0  0
   16.8195   -2.0001   -6.6375 C   0  0  0  0  0  0  0  0  0  0  0  0
   16.2882   -1.6496   -5.3937 C   0  0  0  0  0  0  0  0  0  0  0  0
   15.6788   -2.6131   -4.5746 C   0  0  0  0  0  0  0  0  0  0  0  0
   15.1621   -2.2810   -3.3117 C   0  0  0  0  0  0  0  0  0  0  0  0
   12.5659   -1.5174    0.2611 N   0  0  0  0  0  0  0  0  0  0  0  0
   12.7718   -0.1901    0.5782 C   0  0  0  0  0  0  0  0  0  0  0  0
   13.2554    0.6089   -0.2283 O   0  0  0  0  0  0  0  0  0  0  0  0
   12.3362    0.2242    2.0119 C   0  0  1  0  0  0  0  0  0  0  0  0
   13.3663   -0.2774    3.0298 C   0  0  0  0  0  0  0  0  0  0  0  0
   13.2075    0.4154    4.3802 C   0  0  0  0  0  0  0  0  0  0  0  0
   13.1469    1.9422    4.2682 C   0  0  0  0  0  0  0  0  0  0  0  0
   13.1390    2.4506    2.8300 C   0  0  0  0  0  0  0  0  0  0  0  0
   12.1901    1.6892    2.0222 N   0  0  0  0  0  0  0  0  0  0  0  0
   11.2309    2.2226    1.1649 C   0  0  0  0  0  0  0  0  0  0  0  0
   10.3482    1.4952    0.6827 O   0  0  0  0  0  0  0  0  0  0  0  0
    1.0611   -3.9119    0.7306 C   0  0  0  0  0  0  0  0  0  0  0  0
    1.7987   -4.8670    0.4905 O   0  0  0  0  0  0  0  0  0  0  0  0
   -0.2670   -4.0515    1.0857 N   0  0  0  0  0  0  0  0  0  0  0  0
   -0.7690   -5.3532    1.5412 C   0  0  1  0  0  0  0  0  0  0  0  0
   -0.9651   -5.3278    3.0697 C   0  0  0  0  0  0  0  0  0  0  0  0
   -1.3718   -6.6447    3.6952 C   0  0  0  0  0  0  0  0  0  0  0  0
   -0.6068   -7.8040    3.4999 C   0  0  0  0  0  0  0  0  0  0  0  0
   -0.9870   -9.0106    4.0898 C   0  0  0  0  0  0  0  0  0  0  0  0
   -2.1266   -9.0705    4.8889 C   0  0  0  0  0  0  0  0  0  0  0  0
   -2.8840   -7.9218    5.1059 C   0  0  0  0  0  0  0  0  0  0  0  0
   -2.5063   -6.7135    4.5174 C   0  0  0  0  0  0  0  0  0  0  0  0
   -2.0441   -5.7902    0.8072 C   0  0  0  0  0  0  0  0  0  0  0  0
   -2.1153   -6.8711    0.2234 O   0  0  0  0  0  0  0  0  0  0  0  0
   -3.1481   -4.9573    0.8994 N   0  0  0  0  0  0  0  0  0  0  0  0
   -4.4539   -5.4781    0.4915 C   0  0  1  0  0  0  0  0  0  0  0  0
   -5.0635   -6.3405    1.6174 C   0  0  0  0  0  0  0  0  0  0  0  0
   -6.1064   -7.3361    1.1669 C   0  0  0  0  0  0  0  0  0  0  0  0
   -7.3796   -7.3439    1.7443 C   0  0  0  0  0  0  0  0  0  0  0  0
   -8.3404   -8.2686    1.3294 C   0  0  0  0  0  0  0  0  0  0  0  0
   -8.0501   -9.2056    0.3266 C   0  0  0  0  0  0  0  0  0  0  0  0
   -9.0018  -10.1441   -0.1044 C   0  0  0  0  0  0  0  0  0  0  0  0
   -8.6987  -11.0578   -1.1148 C   0  0  0  0  0  0  0  0  0  0  0  0
   -7.4398  -11.0450   -1.7085 C   0  0  0  0  0  0  0  0  0  0  0  0
   -6.4789  -10.1330   -1.2780 C   0  0  0  0  0  0  0  0  0  0  0  0
   -6.7673   -9.2101   -0.2619 C   0  0  0  0  0  0  0  0  0  0  0  0
   -5.8048   -8.2897    0.1809 C   0  0  0  0  0  0  0  0  0  0  0  0
   -5.4110   -4.3459    0.0653 C   0  0  0  0  0  0  0  0  0  0  0  0
   -5.2577   -3.1647    0.3888 O   0  0  0  0  0  0  0  0  0  0  0  0
   -6.4680   -4.7552   -0.7219 N   0  0  0  0  0  0  0  0  0  0  0  0
   -7.3570   -3.8283   -1.4112 C   0  0  1  0  0  0  0  0  0  0  0  0
   -7.8846   -4.3744   -2.7559 C   0  0  0  0  0  0  0  0  0  0  0  0
   -8.2972   -5.8505   -2.8599 C   0  0  0  0  0  0  0  0  0  0  0  0
   -9.5187   -6.2475   -2.0305 C   0  0  0  0  0  0  0  0  0  0  0  0
   -9.9310   -7.5978   -2.3569 N   0  0  0  0  0  0  0  0  0  0  0  0
  -10.6383   -7.9521   -3.4513 C   0  0  0  0  0  0  0  0  0  0  0  0
  -11.3106   -7.2116   -4.2514 N   0  0  0  0  0  0  0  0  0  0  0  0
  -10.6060   -9.2843   -3.6503 N   0  0  0  0  0  0  0  0  0  0  0  0
   -8.4854   -3.3097   -0.4929 C   0  0  0  0  0  0  0  0  0  0  0  0
   -9.6596   -3.6453   -0.6115 O   0  0  0  0  0  0  0  0  0  0  0  0
   -8.0722   -2.4122    0.4666 N   0  0  0  0  0  0  0  0  0  0  0  0
   -9.0000   -1.7096    1.3700 C   0  0  1  0  0  0  0  0  0  0  0  0
   -8.4183   -1.5973    2.7870 C   0  0  0  0  0  0  0  0  0  0  0  0
   -8.0574   -2.9376    3.4543 C   0  0  0  0  0  0  0  0  0  0  0  0
   -9.2433   -3.8796    3.7082 C   0  0  0  0  0  0  0  0  0  0  0  0
   -9.7193   -4.4405    2.4680 N   0  0  0  0  0  0  0  0  0  0  0  0
  -10.7993   -5.2528    2.3818 C   0  0  0  0  0  0  0  0  0  0  0  0
  -11.4996   -5.6592    3.3696 N   0  0  0  0  0  0  0  0  0  0  0  0
  -11.0649   -5.5454    1.0952 N   0  0  0  0  0  0  0  0  0  0  0  0
   -9.4403   -0.3271    0.7976 C   0  0  0  0  0  0  0  0  0  0  0  0
   -9.7819    0.6315    1.4943 O   0  0  0  0  0  0  0  0  0  0  0  0
   -9.6326   -0.3413   -0.5643 N   0  0  0  0  0  0  0  0  0  0  0  0
  -10.3435    0.6669   -1.3308 C   0  0  1  0  0  0  0  0  0  0  0  0
  -11.7737    0.9450   -0.8376 C   0  0  0  0  0  0  0  0  0  0  0  0
  -12.6048    1.6745   -1.8970 C   0  0  0  0  0  0  0  0  0  0  0  0
  -13.8954    2.2522   -1.3186 C   0  0  0  0  0  0  0  0  0  0  0  0
  -14.5565    3.0808   -2.3174 N   0  0  0  0  0  0  0  0  0  0  0  0
  -15.3444    2.5397   -3.2782 C   0  0  0  0  0  0  0  0  0  0  0  0
  -15.6159    1.2970   -3.4041 N   0  0  0  0  0  0  0  0  0  0  0  0
  -15.8390    3.5029   -4.0798 N   0  0  0  0  0  0  0  0  0  0  0  0
   -9.4766    1.9261   -1.5500 C   0  0  0  0  0  0  0  0  0  0  0  0
   -8.6554    1.9927   -2.4644 O   0  0  0  0  0  0  0  0  0  0  0  0
   -9.6564    2.9448   -0.6421 N   0  0  0  0  0  0  0  0  0  0  0  0
   -9.3297    4.3220   -1.0163 C   0  0  1  0  0  0  0  0  0  0  0  0
  -10.2931    5.2861   -0.3100 C   0  0  0  0  0  0  0  0  0  0  0  0
  -10.2922    6.7231   -0.8556 C   0  0  0  0  0  0  0  0  0  0  0  0
  -10.6693    6.8196   -2.3378 C   0  0  0  0  0  0  0  0  0  0  0  0
  -10.6475    8.2061   -2.7699 N   0  0  0  0  0  0  0  0  0  0  0  0
  -11.0001    8.5252   -4.0372 C   0  0  0  0  0  0  0  0  0  0  0  0
  -11.6403    7.7555   -4.8425 N   0  0  0  0  0  0  0  0  0  0  0  0
  -10.5635    9.7495   -4.3806 N   0  0  0  0  0  0  0  0  0  0  0  0
   -7.8646    4.7069   -0.7297 C   0  0  0  0  0  0  0  0  0  0  0  0
   -7.3347    5.6762   -1.2764 O   0  0  0  0  0  0  0  0  0  0  0  0
   -7.2415    3.9895    0.2743 N   0  0  0  0  0  0  0  0  0  0  0  0
   -5.9983    4.5014    0.8768 C   0  0  2  0  0  0  0  0  0  0  0  0
   -6.3796    5.7430    1.7324 C   0  0  0  0  0  0  0  0  0  0  0  0
   -7.5254    5.9023    2.1600 O   0  0  0  0  0  0  0  0  0  0  0  0
   -5.3559    6.6080    2.0384 N   0  0  0  0  0  0  0  0  0  0  0  0
   -5.5293    7.7996    2.8742 C   0  0  1  0  0  0  0  0  0  0  0  0
   -6.6867    8.7269    2.4525 C   0  0  0  0  0  0  0  0  0  0  0  0
   -6.6519    9.1015    0.9654 C   0  0  0  0  0  0  0  0  0  0  0  0
   -7.8873    9.9139    0.5583 C   0  0  0  0  0  0  0  0  0  0  0  0
   -7.9255   10.1190   -0.9574 C   0  0  0  0  0  0  0  0  0  0  0  0
   -9.1710   10.7618   -1.3786 N   0  0  0  0  0  0  0  0  0  0  0  0
   -5.6123    7.4695    4.3741 C   0  0  0  0  0  0  0  0  0  0  0  0
   -5.8201    8.2748    5.2710 O   0  0  0  0  0  0  0  0  0  0  0  0
   -5.3613    6.1766    4.6735 O   0  0  0  0  0  0  0  0  0  0  0  0
   -4.8911    4.7306   -0.1777 C   0  0  0  0  0  0  0  0  0  0  0  0
   -3.6739    3.9600    0.0789 N   0  0  0  0  0  0  0  0  0  0  0  0
   -2.7800    4.3282    1.0572 C   0  0  0  0  0  0  0  0  0  0  0  0
   -2.9911    5.2545    1.8427 O   0  0  0  0  0  0  0  0  0  0  0  0
   12.1827    5.6408   -1.2608 H   0  0  0  0  0  0  0  0  0  0  0  0
   13.9004    5.3488   -1.0704 H   0  0  0  0  0  0  0  0  0  0  0  0
   12.9555    5.9278    0.3171 H   0  0  0  0  0  0  0  0  0  0  0  0
   13.5417    3.4530    0.3642 H   0  0  0  0  0  0  0  0  0  0  0  0
   12.7739    2.1316   -1.1462 H   0  0  0  0  0  0  0  0  0  0  0  0
   11.4383    4.3408    1.5790 H   0  0  0  0  0  0  0  0  0  0  0  0
   10.0444    3.4537   -0.8837 H   0  0  0  0  0  0  0  0  0  0  0  0
    7.5922    3.5291   -0.5769 H   0  0  0  0  0  0  0  0  0  0  0  0
    8.5457    4.8651   -2.2890 H   0  0  0  0  0  0  0  0  0  0  0  0
    6.9250    5.4723   -2.0745 H   0  0  0  0  0  0  0  0  0  0  0  0
    6.7636    7.5815   -0.2893 H   0  0  0  0  0  0  0  0  0  0  0  0
    7.6702    9.8728   -0.1006 H   0  0  0  0  0  0  0  0  0  0  0  0
   11.1028    8.7400   -2.3957 H   0  0  0  0  0  0  0  0  0  0  0  0
   10.2334    6.4315   -2.5939 H   0  0  0  0  0  0  0  0  0  0  0  0
    6.9513    5.3353    1.4826 H   0  0  0  0  0  0  0  0  0  0  0  0
    4.7569    4.7794    2.3854 H   0  0  0  0  0  0  0  0  0  0  0  0
    3.6428    6.8641    2.2411 H   0  0  0  0  0  0  0  0  0  0  0  0
    5.0448    7.0843    1.2403 H   0  0  0  0  0  0  0  0  0  0  0  0
    1.5363    7.4654    1.4404 H   0  0  0  0  0  0  0  0  0  0  0  0
    0.0605    8.1721   -0.4038 H   0  0  0  0  0  0  0  0  0  0  0  0
    0.8696    8.1013   -2.7490 H   0  0  0  0  0  0  0  0  0  0  0  0
    3.1744    7.3242   -3.2394 H   0  0  0  0  0  0  0  0  0  0  0  0
    4.6652    6.6263   -1.4172 H   0  0  0  0  0  0  0  0  0  0  0  0
    3.0628    3.7848    0.2832 H   0  0  0  0  0  0  0  0  0  0  0  0
   -0.4058    5.2612    1.8894 H   0  0  0  0  0  0  0  0  0  0  0  0
   -2.3302    1.6763    0.4435 H   0  0  0  0  0  0  0  0  0  0  0  0
    1.9090    1.6923    1.2252 H   0  0  0  0  0  0  0  0  0  0  0  0
    1.6747    0.2803   -0.5495 H   0  0  0  0  0  0  0  0  0  0  0  0
    0.0839   -2.1584   -0.9015 H   0  0  0  0  0  0  0  0  0  0  0  0
    1.7477   -1.8736   -1.4217 H   0  0  0  0  0  0  0  0  0  0  0  0
    1.2000   -1.9637    1.5770 H   0  0  0  0  0  0  0  0  0  0  0  0
    3.5113   -2.9316   -0.0437 H   0  0  0  0  0  0  0  0  0  0  0  0
    5.6322   -2.7416    2.7805 H   0  0  0  0  0  0  0  0  0  0  0  0
    4.5501   -5.0322    2.7353 H   0  0  0  0  0  0  0  0  0  0  0  0
    4.6248   -5.0220    0.9664 H   0  0  0  0  0  0  0  0  0  0  0  0
    6.1239   -5.0379    1.9030 H   0  0  0  0  0  0  0  0  0  0  0  0
    6.1275   -3.2879   -0.0106 H   0  0  0  0  0  0  0  0  0  0  0  0
    6.8348   -1.1775   -1.4154 H   0  0  0  0  0  0  0  0  0  0  0  0
    7.8209   -0.1340   -0.3608 H   0  0  0  0  0  0  0  0  0  0  0  0
    9.4297   -1.6801   -0.5530 H   0  0  0  0  0  0  0  0  0  0  0  0
    9.7369   -4.4967   -2.1874 H   0  0  0  0  0  0  0  0  0  0  0  0
    8.4583   -5.9056   -0.5202 H   0  0  0  0  0  0  0  0  0  0  0  0
    9.3635   -5.1876    0.7873 H   0  0  0  0  0  0  0  0  0  0  0  0
   10.0768   -7.4948   -0.0194 H   0  0  0  0  0  0  0  0  0  0  0  0
   10.6069   -6.7768   -1.5364 H   0  0  0  0  0  0  0  0  0  0  0  0
   12.3532   -5.5104   -0.4019 H   0  0  0  0  0  0  0  0  0  0  0  0
   12.4764   -7.2033    0.0615 H   0  0  0  0  0  0  0  0  0  0  0  0
   11.1803   -6.6402    2.0784 H   0  0  0  0  0  0  0  0  0  0  0  0
   14.0000   -5.2060    0.9708 H   0  0  0  0  0  0  0  0  0  0  0  0
   13.0657   -4.9354    4.1739 H   0  0  0  0  0  0  0  0  0  0  0  0
   11.4284   -5.0308    3.8027 H   0  0  0  0  0  0  0  0  0  0  0  0
   10.9909   -3.3279    0.2622 H   0  0  0  0  0  0  0  0  0  0  0  0
   12.9488   -1.1340   -1.7619 H   0  0  0  0  0  0  0  0  0  0  0  0
   13.8663   -3.8013   -0.5554 H   0  0  0  0  0  0  0  0  0  0  0  0
   14.8785   -2.3866   -0.5863 H   0  0  0  0  0  0  0  0  0  0  0  0
   14.0152   -5.3425   -2.3566 H   0  0  0  0  0  0  0  0  0  0  0  0
   14.9080   -5.9419   -4.5491 H   0  0  0  0  0  0  0  0  0  0  0  0
   16.0848   -5.3094   -6.6432 H   0  0  0  0  0  0  0  0  0  0  0  0
   17.1643   -3.5920   -8.0398 H   0  0  0  0  0  0  0  0  0  0  0  0
   17.2894   -1.2426   -7.2580 H   0  0  0  0  0  0  0  0  0  0  0  0
   16.3583   -0.6137   -5.0660 H   0  0  0  0  0  0  0  0  0  0  0  0
   15.2351   -1.2556   -2.9565 H   0  0  0  0  0  0  0  0  0  0  0  0
   12.4848   -2.1877    1.0211 H   0  0  0  0  0  0  0  0  0  0  0  0
   11.3522   -0.2153    2.2182 H   0  0  0  0  0  0  0  0  0  0  0  0
   13.2777   -1.3612    3.1566 H   0  0  0  0  0  0  0  0  0  0  0  0
   14.3835   -0.0982    2.6555 H   0  0  0  0  0  0  0  0  0  0  0  0
   12.2850    0.0620    4.8602 H   0  0  0  0  0  0  0  0  0  0  0  0
   14.0320    0.1246    5.0435 H   0  0  0  0  0  0  0  0  0  0  0  0
   13.9887    2.3929    4.8086 H   0  0  0  0  0  0  0  0  0  0  0  0
   12.2379    2.2908    4.7758 H   0  0  0  0  0  0  0  0  0  0  0  0
   14.1302    2.3335    2.3750 H   0  0  0  0  0  0  0  0  0  0  0  0
   12.8987    3.5136    2.8276 H   0  0  0  0  0  0  0  0  0  0  0  0
   -0.8106   -3.2137    1.2802 H   0  0  0  0  0  0  0  0  0  0  0  0
   -0.0168   -6.1096    1.2935 H   0  0  0  0  0  0  0  0  0  0  0  0
   -0.0333   -5.0059    3.5537 H   0  0  0  0  0  0  0  0  0  0  0  0
   -1.7070   -4.5580    3.3259 H   0  0  0  0  0  0  0  0  0  0  0  0
    0.2928   -7.7834    2.8901 H   0  0  0  0  0  0  0  0  0  0  0  0
   -0.3898   -9.9051    3.9287 H   0  0  0  0  0  0  0  0  0  0  0  0
   -2.4223  -10.0116    5.3456 H   0  0  0  0  0  0  0  0  0  0  0  0
   -3.7689   -7.9665    5.7363 H   0  0  0  0  0  0  0  0  0  0  0  0
   -3.1042   -5.8265    4.7106 H   0  0  0  0  0  0  0  0  0  0  0  0
   -3.1149   -4.0891    1.4154 H   0  0  0  0  0  0  0  0  0  0  0  0
   -4.2832   -6.0794   -0.4116 H   0  0  0  0  0  0  0  0  0  0  0  0
   -4.2766   -6.9237    2.1154 H   0  0  0  0  0  0  0  0  0  0  0  0
   -5.4766   -5.6827    2.3945 H   0  0  0  0  0  0  0  0  0  0  0  0
   -7.6409   -6.6444    2.5381 H   0  0  0  0  0  0  0  0  0  0  0  0
   -9.3228   -8.2490    1.7992 H   0  0  0  0  0  0  0  0  0  0  0  0
   -9.9909  -10.1669    0.3467 H   0  0  0  0  0  0  0  0  0  0  0  0
   -9.4406  -11.7809   -1.4376 H   0  0  0  0  0  0  0  0  0  0  0  0
   -7.2052  -11.7486   -2.5022 H   0  0  0  0  0  0  0  0  0  0  0  0
   -5.4954  -10.1490   -1.7454 H   0  0  0  0  0  0  0  0  0  0  0  0
   -4.7973   -8.3285   -0.2368 H   0  0  0  0  0  0  0  0  0  0  0  0
   -6.6796   -5.7462   -0.7616 H   0  0  0  0  0  0  0  0  0  0  0  0
   -6.7655   -2.9368   -1.6632 H   0  0  0  0  0  0  0  0  0  0  0  0
   -8.7226   -3.7528   -3.0972 H   0  0  0  0  0  0  0  0  0  0  0  0
   -7.0837   -4.2345   -3.4945 H   0  0  0  0  0  0  0  0  0  0  0  0
   -7.4521   -6.5071   -2.6126 H   0  0  0  0  0  0  0  0  0  0  0  0
   -8.5140   -6.0464   -3.9217 H   0  0  0  0  0  0  0  0  0  0  0  0
   -9.2579   -6.2204   -0.9681 H   0  0  0  0  0  0  0  0  0  0  0  0
  -10.3490   -5.5487   -2.1884 H   0  0  0  0  0  0  0  0  0  0  0  0
   -9.2299   -8.2913   -2.1140 H   0  0  0  0  0  0  0  0  0  0  0  0
  -11.2522   -6.2382   -3.9488 H   0  0  0  0  0  0  0  0  0  0  0  0
  -11.2604   -9.5239   -4.3906 H   0  0  0  0  0  0  0  0  0  0  0  0
  -10.8129   -9.8030   -2.8073 H   0  0  0  0  0  0  0  0  0  0  0  0
   -7.0736   -2.1904    0.5241 H   0  0  0  0  0  0  0  0  0  0  0  0
   -9.9419   -2.2634    1.4074 H   0  0  0  0  0  0  0  0  0  0  0  0
   -9.1251   -1.0596    3.4316 H   0  0  0  0  0  0  0  0  0  0  0  0
   -7.5122   -0.9776    2.7502 H   0  0  0  0  0  0  0  0  0  0  0  0
   -7.2929   -3.4550    2.8645 H   0  0  0  0  0  0  0  0  0  0  0  0
   -7.5998   -2.7131    4.4245 H   0  0  0  0  0  0  0  0  0  0  0  0
   -8.9121   -4.6902    4.3750 H   0  0  0  0  0  0  0  0  0  0  0  0
  -10.0515   -3.3362    4.2176 H   0  0  0  0  0  0  0  0  0  0  0  0
   -9.0126   -4.6411    1.7738 H   0  0  0  0  0  0  0  0  0  0  0  0
  -12.2461   -6.2622    3.0214 H   0  0  0  0  0  0  0  0  0  0  0  0
  -10.7841   -4.7966    0.4582 H   0  0  0  0  0  0  0  0  0  0  0  0
  -12.0241   -5.8126    0.9130 H   0  0  0  0  0  0  0  0  0  0  0  0
   -9.3562   -1.1756   -1.0670 H   0  0  0  0  0  0  0  0  0  0  0  0
  -10.4399    0.2181   -2.3301 H   0  0  0  0  0  0  0  0  0  0  0  0
  -12.2680   -0.0040   -0.5985 H   0  0  0  0  0  0  0  0  0  0  0  0
  -11.7721    1.5190    0.0926 H   0  0  0  0  0  0  0  0  0  0  0  0
  -12.8378    0.9728   -2.7028 H   0  0  0  0  0  0  0  0  0  0  0  0
  -12.0260    2.4795   -2.3552 H   0  0  0  0  0  0  0  0  0  0  0  0
  -13.6540    2.8943   -0.4639 H   0  0  0  0  0  0  0  0  0  0  0  0
  -14.5562    1.4616   -0.9455 H   0  0  0  0  0  0  0  0  0  0  0  0
  -14.9627    3.9261   -1.9357 H   0  0  0  0  0  0  0  0  0  0  0  0
  -16.2582    1.1682   -4.1887 H   0  0  0  0  0  0  0  0  0  0  0  0
  -15.1794    4.2676   -4.2133 H   0  0  0  0  0  0  0  0  0  0  0  0
  -16.2014    3.1723   -4.9659 H   0  0  0  0  0  0  0  0  0  0  0  0
  -10.0841    2.7430    0.2528 H   0  0  0  0  0  0  0  0  0  0  0  0
   -9.4547    4.3749   -2.1016 H   0  0  0  0  0  0  0  0  0  0  0  0
  -10.0593    5.3177    0.7601 H   0  0  0  0  0  0  0  0  0  0  0  0
  -11.3171    4.8943   -0.3869 H   0  0  0  0  0  0  0  0  0  0  0  0
   -9.3100    7.1802   -0.6944 H   0  0  0  0  0  0  0  0  0  0  0  0
  -10.9990    7.3184   -0.2619 H   0  0  0  0  0  0  0  0  0  0  0  0
   -9.9615    6.2548   -2.9553 H   0  0  0  0  0  0  0  0  0  0  0  0
  -11.6666    6.3943   -2.4878 H   0  0  0  0  0  0  0  0  0  0  0  0
   -9.7965    8.6911   -2.4907 H   0  0  0  0  0  0  0  0  0  0  0  0
  -11.7344    8.2283   -5.7427 H   0  0  0  0  0  0  0  0  0  0  0  0
  -11.0084   10.1893   -5.1747 H   0  0  0  0  0  0  0  0  0  0  0  0
  -10.4108   10.3855   -3.6039 H   0  0  0  0  0  0  0  0  0  0  0  0
   -7.8487    3.4281    0.8622 H   0  0  0  0  0  0  0  0  0  0  0  0
   -5.6911    3.7221    1.5823 H   0  0  0  0  0  0  0  0  0  0  0  0
   -4.4145    6.2046    2.0442 H   0  0  0  0  0  0  0  0  0  0  0  0
   -4.5867    8.3524    2.7510 H   0  0  0  0  0  0  0  0  0  0  0  0
   -6.6439    9.6489    3.0487 H   0  0  0  0  0  0  0  0  0  0  0  0
   -7.6505    8.2653    2.7000 H   0  0  0  0  0  0  0  0  0  0  0  0
   -6.6137    8.1927    0.3528 H   0  0  0  0  0  0  0  0  0  0  0  0
   -5.7416    9.6744    0.7477 H   0  0  0  0  0  0  0  0  0  0  0  0
   -7.8834   10.8835    1.0728 H   0  0  0  0  0  0  0  0  0  0  0  0
   -8.7914    9.3784    0.8784 H   0  0  0  0  0  0  0  0  0  0  0  0
   -7.8390    9.1566   -1.4712 H   0  0  0  0  0  0  0  0  0  0  0  0
   -7.0771   10.7326   -1.2785 H   0  0  0  0  0  0  0  0  0  0  0  0
   -9.1981   11.7025   -0.9846 H   0  0  0  0  0  0  0  0  0  0  0  0
   -9.9638   10.2763   -0.9494 H   0  0  0  0  0  0  0  0  0  0  0  0
   -5.4686    6.1273    5.6439 H   0  0  0  0  0  0  0  0  0  0  0  0
   -5.2111    4.3955   -1.1712 H   0  0  0  0  0  0  0  0  0  0  0  0
   -4.6076    5.7858   -0.2651 H   0  0  0  0  0  0  0  0  0  0  0  0
   -3.3923    3.3131   -0.6465 H   0  0  0  0  0  0  0  0  0  0  0  0
  1  2  1  0
  2  3  1  0
  2  4  1  0
  4  5  1  0
  5  6  1  0
  6  7  2  0
  6  8  1  0
  8  9  1  0
  9 10  1  0
 10 11  1  0
 11 12  2  0
 12 13  1  0
 13 14  1  0
 13 15  2  0
 15 16  1  0
  8 17  1  0
 17 18  1  0
 18 19  2  0
 18 20  1  0
 20 21  1  0
 21 22  1  0
 22 23  2  0
 23 24  1  0
 24 25  2  0
 25 26  1  0
 26 27  2  0
 20 28  1  0
 28 29  1  0
 29 30  2  0
 29 31  1  0
 31 32  1  0
 32 33  2  0
 33 34  1  0
 34 35  2  0
 35 36  1  0
 35 37  1  0
 37 38  2  0
 37 39  1  0
 39 40  1  0
 40 41  1  0
 41 42  1  0
 42 43  1  0
 43 44  2  0
 43 45  1  0
 45 46  1  0
 45 47  1  0
 47 48  1  0
 48 49  2  0
 48 50  1  0
 50 51  1  0
 51 52  1  0
 52 53  2  0
 52 54  1  0
 54 55  1  0
 55 56  1  0
 56 57  1  0
 57 58  1  0
 58 59  1  0
 59 60  2  3
 59 61  1  0
 54 62  1  0
 62 63  1  0
 63 64  2  0
 63 65  1  0
 65 66  1  0
 66 67  1  0
 67 68  1  0
 68 69  2  0
 69 70  1  0
 70 71  2  0
 71 72  1  0
 72 73  2  0
 73 74  1  0
 74 75  2  0
 75 76  1  0
 65 77  1  0
 77 78  1  0
 78 79  2  0
 78 80  1  0
 80 81  1  0
 81 82  1  0
 82 83  1  0
 83 84  1  0
 84 85  1  0
 85 86  1  0
 86 87  2  0
 41 88  1  0
 88 89  2  0
 88 90  1  0
 90 91  1  0
 91 92  1  0
 92 93  1  0
 93 94  2  0
 94 95  1  0
 95 96  2  0
 96 97  1  0
 97 98  2  0
 91 99  1  0
 99100  2  0
 99101  1  0
101102  1  0
102103  1  0
103104  1  0
104105  1  0
105106  2  0
106107  1  0
107108  2  0
108109  1  0
109110  2  0
110111  1  0
111112  2  0
112113  1  0
102114  1  0
114115  2  0
114116  1  0
116117  1  0
117118  1  0
118119  1  0
119120  1  0
120121  1  0
121122  1  0
122123  2  3
122124  1  0
117125  1  0
125126  2  0
125127  1  0
127128  1  0
128129  1  0
129130  1  0
130131  1  0
131132  1  0
132133  1  0
133134  2  3
133135  1  0
128136  1  0
136137  2  0
136138  1  0
138139  1  0
139140  1  0
140141  1  0
141142  1  0
142143  1  0
143144  1  0
144145  2  3
144146  1  0
139147  1  0
147148  2  0
147149  1  0
149150  1  0
150151  1  0
151152  1  0
152153  1  0
153154  1  0
154155  1  0
155156  2  3
155157  1  0
150158  1  0
158159  2  0
158160  1  0
160161  1  0
161162  1  0
162163  2  0
162164  1  0
164165  1  0
165166  1  0
166167  1  0
167168  1  0
168169  1  0
169170  1  0
165171  1  0
171172  2  0
171173  1  0
161174  1  0
174175  1  0
175176  1  0
176177  2  0
 86  4  1  0
 98 93  1  0
113104  2  0
 16 10  2  0
 27 22  1  0
 36 31  2  0
 76 67  2  0
 85 80  1  0
112107  1  0
176 33  1  0
 75 70  1  0
  1178  1  0
  1179  1  0
  1180  1  0
  2181  1  1
  3182  1  0
  4183  1  1
  5184  1  0
  8185  1  6
  9186  1  0
  9187  1  0
 11188  1  0
 12189  1  0
 15190  1  0
 16191  1  0
 17192  1  0
 20193  1  1
 21194  1  0
 21195  1  0
 23196  1  0
 24197  1  0
 25198  1  0
 26199  1  0
 27200  1  0
 28201  1  0
 32202  1  0
 34203  1  0
 36204  1  0
 39205  1  0
 40206  1  0
 40207  1  0
 41208  1  1
 42209  1  0
 45210  1  1
 46211  1  0
 46212  1  0
 46213  1  0
 47214  1  0
 50215  1  0
 50216  1  0
 51217  1  0
 54218  1  6
 55219  1  0
 55220  1  0
 56221  1  0
 56222  1  0
 57223  1  0
 57224  1  0
 58225  1  0
 60226  1  0
 61227  1  0
 61228  1  0
 62229  1  0
 65230  1  6
 66231  1  0
 66232  1  0
 68233  1  0
 69234  1  0
 71235  1  0
 72236  1  0
 73237  1  0
 74238  1  0
 76239  1  0
 77240  1  0
 80241  1  1
 81242  1  0
 81243  1  0
 82244  1  0
 82245  1  0
 83246  1  0
 83247  1  0
 84248  1  0
 84249  1  0
 90250  1  0
 91251  1  1
 92252  1  0
 92253  1  0
 94254  1  0
 95255  1  0
 96256  1  0
 97257  1  0
 98258  1  0
101259  1  0
102260  1  6
103261  1  0
103262  1  0
105263  1  0
106264  1  0
108265  1  0
109266  1  0
110267  1  0
111268  1  0
113269  1  0
116270  1  0
117271  1  6
118272  1  0
118273  1  0
119274  1  0
119275  1  0
120276  1  0
120277  1  0
121278  1  0
123279  1  0
124280  1  0
124281  1  0
127282  1  0
128283  1  1
129284  1  0
129285  1  0
130286  1  0
130287  1  0
131288  1  0
131289  1  0
132290  1  0
134291  1  0
135292  1  0
135293  1  0
138294  1  0
139295  1  6
140296  1  0
140297  1  0
141298  1  0
141299  1  0
142300  1  0
142301  1  0
143302  1  0
145303  1  0
146304  1  0
146305  1  0
149306  1  0
150307  1  6
151308  1  0
151309  1  0
152310  1  0
152311  1  0
153312  1  0
153313  1  0
154314  1  0
156315  1  0
157316  1  0
157317  1  0
160318  1  0
161319  1  1
164320  1  0
165321  1  1
166322  1  0
166323  1  0
167324  1  0
167325  1  0
168326  1  0
168327  1  0
169328  1  0
169329  1  0
170330  1  0
170331  1  0
173332  1  0
174333  1  0
174334  1  0
175335  1  0
M  END
$$$$
