
     RDKit          3D

217220  0  0  0  0  0  0  0  0999 V2000
   -4.0386    4.0133   -2.8245 C   0  0  0  0  0  0  0  0  0  0  0  0
   -3.6173    5.1768   -1.9312 C   0  0  1  0  0  0  0  0  0  0  0  0
   -4.8033    5.6446   -1.2873 O   0  0  0  0  0  0  0  0  0  0  0  0
   -4.8180    7.1452   -0.7310 P   0  0  0  0  0  0  0  0  0  0  0  0
   -3.5353    7.9027   -0.7300 O   0  0  0  0  0  0  0  0  0  0  0  0
   -6.0037    7.8216   -1.5611 O   0  0  0  0  0  0  0  0  0  0  0  0
   -5.5174    6.9733    0.6925 O   0  0  0  0  0  0  0  0  0  0  0  0
   -2.5376    4.7949   -0.8863 C   0  0  1  0  0  0  0  0  0  0  0  0
   -2.9904    3.7190    0.0045 N   0  0  0  0  0  0  0  0  0  0  0  0
   -3.7671    3.9189    1.1199 C   0  0  0  0  0  0  0  0  0  0  0  0
   -4.0931    5.0382    1.5102 O   0  0  0  0  0  0  0  0  0  0  0  0
   -4.1068    2.6198    1.8780 C   0  0  1  0  0  0  0  0  0  0  0  0
   -5.2333    2.8095    2.9087 C   0  0  0  0  0  0  0  0  0  0  0  0
   -6.6106    3.0698    2.2734 C   0  0  0  0  0  0  0  0  0  0  0  0
   -7.7012    3.3350    3.3114 C   0  0  0  0  0  0  0  0  0  0  0  0
   -7.9421    2.1725    4.1598 N   0  0  0  0  0  0  0  0  0  0  0  0
   -8.6941    1.1227    3.7522 C   0  0  0  0  0  0  0  0  0  0  0  0
   -9.1232    0.9242    2.5613 N   0  0  0  0  0  0  0  0  0  0  0  0
   -8.9416    0.2794    4.7720 N   0  0  0  0  0  0  0  0  0  0  0  0
   -4.4370    1.5521    0.9325 N   0  0  0  0  0  0  0  0  0  0  0  0
   -4.1237    0.2372    1.1855 C   0  0  0  0  0  0  0  0  0  0  0  0
   -3.3485   -0.0610    2.0974 O   0  0  0  0  0  0  0  0  0  0  0  0
   -4.8940   -0.8506    0.3797 C   0  0  1  0  0  0  0  0  0  0  0  0
   -5.6308   -0.3789   -0.8840 C   0  0  0  0  0  0  0  0  0  0  0  0
   -6.5665   -1.4241   -1.5087 C   0  0  0  0  0  0  0  0  0  0  0  0
   -7.7256   -1.8721   -0.6097 C   0  0  0  0  0  0  0  0  0  0  0  0
   -8.4518   -0.7538   -0.0345 N   0  0  0  0  0  0  0  0  0  0  0  0
   -9.0784    0.1954   -0.7646 C   0  0  0  0  0  0  0  0  0  0  0  0
   -9.6593    0.0514   -1.8971 N   0  0  0  0  0  0  0  0  0  0  0  0
   -9.0158    1.4043   -0.1823 N   0  0  0  0  0  0  0  0  0  0  0  0
   -4.0628   -2.0402    0.1754 N   0  0  0  0  0  0  0  0  0  0  0  0
   -3.0282   -2.0425   -0.7404 C   0  0  0  0  0  0  0  0  0  0  0  0
   -2.8310   -1.1033   -1.5085 O   0  0  0  0  0  0  0  0  0  0  0  0
   -2.2542   -3.3869   -0.9197 C   0  0  2  0  0  0  0  0  0  0  0  0
   -3.0460   -4.1571   -2.0044 C   0  0  0  0  0  0  0  0  0  0  0  0
   -2.4289   -5.4596   -2.5199 C   0  0  0  0  0  0  0  0  0  0  0  0
   -1.2508   -5.2473   -3.4393 C   0  0  0  0  0  0  0  0  0  0  0  0
   -0.8564   -6.3601   -4.1303 N   0  0  0  0  0  0  0  0  0  0  0  0
   -0.6398   -4.1947   -3.5572 O   0  0  0  0  0  0  0  0  0  0  0  0
   -2.0237   -4.2810    0.2290 N   0  0  0  0  0  0  0  0  0  0  0  0
   -1.7241   -3.8103    1.4934 C   0  0  0  0  0  0  0  0  0  0  0  0
   -2.3368   -2.8791    2.0038 O   0  0  0  0  0  0  0  0  0  0  0  0
   -0.7804   -4.7183    2.3197 C   0  0  1  0  0  0  0  0  0  0  0  0
   -1.6091   -5.8781    2.8958 C   0  0  0  0  0  0  0  0  0  0  0  0
   -1.1774   -6.3122    4.3067 C   0  0  0  0  0  0  0  0  0  0  0  0
    0.2037   -6.9599    4.4231 C   0  0  0  0  0  0  0  0  0  0  0  0
    0.2341   -8.2589    3.7599 N   0  0  0  0  0  0  0  0  0  0  0  0
    0.5217   -8.3883    2.4495 C   0  0  0  0  0  0  0  0  0  0  0  0
    1.4653   -7.7718    1.8271 N   0  0  0  0  0  0  0  0  0  0  0  0
   -0.3105   -9.2304    1.8092 N   0  0  0  0  0  0  0  0  0  0  0  0
    0.2972   -5.1630    1.4314 N   0  0  0  0  0  0  0  0  0  0  0  0
    1.3186   -4.2803    1.1158 C   0  0  0  0  0  0  0  0  0  0  0  0
    1.3698   -3.1381    1.5731 O   0  0  0  0  0  0  0  0  0  0  0  0
    2.3582   -4.8071    0.1011 C   0  0  1  0  0  0  0  0  0  0  0  0
    1.7108   -4.9829   -1.2737 C   0  0  0  0  0  0  0  0  0  0  0  0
    2.5774   -5.7945   -2.2474 C   0  0  0  0  0  0  0  0  0  0  0  0
    2.5683   -7.2973   -1.9539 C   0  0  0  0  0  0  0  0  0  0  0  0
    1.2338   -7.8269   -2.1674 N   0  0  0  0  0  0  0  0  0  0  0  0
    0.8024   -9.0217   -1.7248 C   0  0  0  0  0  0  0  0  0  0  0  0
    1.0821   -9.5891   -0.6106 N   0  0  0  0  0  0  0  0  0  0  0  0
   -0.0466   -9.6182   -2.5860 N   0  0  0  0  0  0  0  0  0  0  0  0
    3.4246   -3.8106    0.0098 N   0  0  0  0  0  0  0  0  0  0  0  0
    4.6692   -4.0034    0.5523 C   0  0  0  0  0  0  0  0  0  0  0  0
    5.0885   -5.1131    0.8871 O   0  0  0  0  0  0  0  0  0  0  0  0
    5.5667   -2.7509    0.5675 C   0  0  1  0  0  0  0  0  0  0  0  0
    6.2905   -2.6182   -0.7751 C   0  0  0  0  0  0  0  0  0  0  0  0
    7.4421   -1.6075   -0.7253 C   0  0  0  0  0  0  0  0  0  0  0  0
    8.0825   -1.3892   -2.0986 C   0  0  0  0  0  0  0  0  0  0  0  0
    8.7244   -2.6068   -2.5685 N   0  0  0  0  0  0  0  0  0  0  0  0
    9.3855   -2.6943   -3.7417 C   0  0  0  0  0  0  0  0  0  0  0  0
    9.3866   -1.8754   -4.7253 N   0  0  0  0  0  0  0  0  0  0  0  0
   10.1178   -3.8204   -3.8152 N   0  0  0  0  0  0  0  0  0  0  0  0
    4.7951   -1.5909    1.0496 N   0  0  0  0  0  0  0  0  0  0  0  0
    4.3313   -0.5124    0.3372 C   0  0  0  0  0  0  0  0  0  0  0  0
    4.4593   -0.4137   -0.8834 O   0  0  0  0  0  0  0  0  0  0  0  0
    3.5729    0.5859    1.1443 C   0  0  1  0  0  0  0  0  0  0  0  0
    4.0602    0.7708    2.5925 C   0  0  0  0  0  0  0  0  0  0  0  0
    5.5290    1.2174    2.6807 C   0  0  0  0  0  0  0  0  0  0  0  0
    6.1021    1.0707    4.0893 C   0  0  0  0  0  0  0  0  0  0  0  0
    6.1484   -0.3272    4.5189 N   0  0  0  0  0  0  0  0  0  0  0  0
    7.0877   -1.1825    4.0476 C   0  0  0  0  0  0  0  0  0  0  0  0
    7.8626   -0.9705    3.0521 N   0  0  0  0  0  0  0  0  0  0  0  0
    7.1025   -2.3272    4.7605 N   0  0  0  0  0  0  0  0  0  0  0  0
    3.6736    1.8456    0.3969 N   0  0  0  0  0  0  0  0  0  0  0  0
    2.8566    2.9196    0.6682 C   0  0  0  0  0  0  0  0  0  0  0  0
    1.9576    2.8856    1.5087 O   0  0  0  0  0  0  0  0  0  0  0  0
    3.1684    4.1892   -0.1393 C   0  0  2  0  0  0  0  0  0  0  0  0
    3.4945    5.3117    0.8637 C   0  0  0  0  0  0  0  0  0  0  0  0
    3.6708    6.6767    0.2403 C   0  0  0  0  0  0  0  0  0  0  0  0
    4.7137    6.9353   -0.6529 C   0  0  0  0  0  0  0  0  0  0  0  0
    4.8581    8.2008   -1.2253 C   0  0  0  0  0  0  0  0  0  0  0  0
    3.9631    9.2390   -0.9188 C   0  0  0  0  0  0  0  0  0  0  0  0
    4.0967   10.5175   -1.4840 C   0  0  0  0  0  0  0  0  0  0  0  0
    3.1990   11.5378   -1.1643 C   0  0  0  0  0  0  0  0  0  0  0  0
    2.1548   11.2932   -0.2753 C   0  0  0  0  0  0  0  0  0  0  0  0
    2.0084   10.0273    0.2937 C   0  0  0  0  0  0  0  0  0  0  0  0
    2.9066    8.9910   -0.0166 C   0  0  0  0  0  0  0  0  0  0  0  0
    2.7740    7.7120    0.5530 C   0  0  0  0  0  0  0  0  0  0  0  0
    2.0051    4.5232   -0.9550 N   0  0  0  0  0  0  0  0  0  0  0  0
    1.9449    4.1841   -2.2876 C   0  0  0  0  0  0  0  0  0  0  0  0
    2.8784    3.6260   -2.8641 O   0  0  0  0  0  0  0  0  0  0  0  0
    0.6878    4.6799   -3.0439 C   0  0  2  0  0  0  0  0  0  0  0  0
    1.1482    5.7302   -4.0741 C   0  0  0  0  0  0  0  0  0  0  0  0
   -0.0162    6.5826   -4.5627 C   0  0  0  0  0  0  0  0  0  0  0  0
   -0.7012    7.3210   -3.4082 C   0  0  0  0  0  0  0  0  0  0  0  0
   -0.4487    6.6682   -2.0515 C   0  0  0  0  0  0  0  0  0  0  0  0
   -0.3916    5.2124   -2.1745 N   0  0  0  0  0  0  0  0  0  0  0  0
   -1.2512    4.3046   -1.5831 C   0  0  0  0  0  0  0  0  0  0  0  0
   -1.0146    3.0932   -1.6386 O   0  0  0  0  0  0  0  0  0  0  0  0
   -4.8082    4.3438   -3.5320 H   0  0  0  0  0  0  0  0  0  0  0  0
   -3.1990    3.6189   -3.4030 H   0  0  0  0  0  0  0  0  0  0  0  0
   -4.4821    3.1987   -2.2423 H   0  0  0  0  0  0  0  0  0  0  0  0
   -3.2472    5.9704   -2.5837 H   0  0  0  0  0  0  0  0  0  0  0  0
   -6.2495    8.6736   -1.1601 H   0  0  0  0  0  0  0  0  0  0  0  0
   -4.9781    6.3470    1.2377 H   0  0  0  0  0  0  0  0  0  0  0  0
   -2.3072    5.6376   -0.2296 H   0  0  0  0  0  0  0  0  0  0  0  0
   -2.6867    2.7704   -0.2236 H   0  0  0  0  0  0  0  0  0  0  0  0
   -3.1941    2.3420    2.4194 H   0  0  0  0  0  0  0  0  0  0  0  0
   -5.2962    1.9058    3.5300 H   0  0  0  0  0  0  0  0  0  0  0  0
   -4.9804    3.6378    3.5820 H   0  0  0  0  0  0  0  0  0  0  0  0
   -6.5517    3.9403    1.6104 H   0  0  0  0  0  0  0  0  0  0  0  0
   -6.8955    2.2170    1.6506 H   0  0  0  0  0  0  0  0  0  0  0  0
   -7.3968    4.1748    3.9491 H   0  0  0  0  0  0  0  0  0  0  0  0
   -8.6310    3.6390    2.8149 H   0  0  0  0  0  0  0  0  0  0  0  0
   -8.1709    2.4470    5.1085 H   0  0  0  0  0  0  0  0  0  0  0  0
   -9.6973    0.0742    2.5538 H   0  0  0  0  0  0  0  0  0  0  0  0
   -9.2891   -0.6328    4.5046 H   0  0  0  0  0  0  0  0  0  0  0  0
   -8.1535    0.1895    5.4051 H   0  0  0  0  0  0  0  0  0  0  0  0
   -5.0588    1.7986    0.1747 H   0  0  0  0  0  0  0  0  0  0  0  0
   -5.6572   -1.1823    1.0965 H   0  0  0  0  0  0  0  0  0  0  0  0
   -4.9234   -0.0408   -1.6484 H   0  0  0  0  0  0  0  0  0  0  0  0
   -6.2319    0.5035   -0.6589 H   0  0  0  0  0  0  0  0  0  0  0  0
   -6.9803   -0.9934   -2.4281 H   0  0  0  0  0  0  0  0  0  0  0  0
   -5.9949   -2.3068   -1.8213 H   0  0  0  0  0  0  0  0  0  0  0  0
   -8.4119   -2.5048   -1.1854 H   0  0  0  0  0  0  0  0  0  0  0  0
   -7.3463   -2.5021    0.2016 H   0  0  0  0  0  0  0  0  0  0  0  0
   -7.9871   -0.3444    0.7715 H   0  0  0  0  0  0  0  0  0  0  0  0
   -9.6103   -0.9316   -2.1683 H   0  0  0  0  0  0  0  0  0  0  0  0
   -9.6405    2.0591   -0.6358 H   0  0  0  0  0  0  0  0  0  0  0  0
   -9.1607    1.4039    0.8384 H   0  0  0  0  0  0  0  0  0  0  0  0
   -3.7583   -2.4808    1.0483 H   0  0  0  0  0  0  0  0  0  0  0  0
   -1.2559   -3.1113   -1.2761 H   0  0  0  0  0  0  0  0  0  0  0  0
   -4.0361   -4.4056   -1.5934 H   0  0  0  0  0  0  0  0  0  0  0  0
   -3.2353   -3.4922   -2.8588 H   0  0  0  0  0  0  0  0  0  0  0  0
   -3.1996   -5.9910   -3.0951 H   0  0  0  0  0  0  0  0  0  0  0  0
   -2.1281   -6.1237   -1.7025 H   0  0  0  0  0  0  0  0  0  0  0  0
   -1.4866   -7.1478   -4.2330 H   0  0  0  0  0  0  0  0  0  0  0  0
   -0.1948   -6.1884   -4.8777 H   0  0  0  0  0  0  0  0  0  0  0  0
   -1.4062   -5.0503   -0.0054 H   0  0  0  0  0  0  0  0  0  0  0  0
   -0.3508   -4.0989    3.1146 H   0  0  0  0  0  0  0  0  0  0  0  0
   -2.6580   -5.5637    2.9842 H   0  0  0  0  0  0  0  0  0  0  0  0
   -1.6233   -6.7320    2.2114 H   0  0  0  0  0  0  0  0  0  0  0  0
   -1.9314   -7.0100    4.6901 H   0  0  0  0  0  0  0  0  0  0  0  0
   -1.2095   -5.4357    4.9658 H   0  0  0  0  0  0  0  0  0  0  0  0
    0.9867   -6.2861    4.0587 H   0  0  0  0  0  0  0  0  0  0  0  0
    0.4140   -7.1260    5.4860 H   0  0  0  0  0  0  0  0  0  0  0  0
   -0.5532   -8.8347    4.0396 H   0  0  0  0  0  0  0  0  0  0  0  0
    2.0270   -7.2862    2.5366 H   0  0  0  0  0  0  0  0  0  0  0  0
    0.0394   -9.4160    0.8547 H   0  0  0  0  0  0  0  0  0  0  0  0
   -0.3740  -10.1344    2.2623 H   0  0  0  0  0  0  0  0  0  0  0  0
    0.5100   -6.1602    1.3459 H   0  0  0  0  0  0  0  0  0  0  0  0
    2.7611   -5.7437    0.4928 H   0  0  0  0  0  0  0  0  0  0  0  0
    0.7260   -5.4533   -1.1796 H   0  0  0  0  0  0  0  0  0  0  0  0
    1.5308   -3.9962   -1.7176 H   0  0  0  0  0  0  0  0  0  0  0  0
    3.6105   -5.4270   -2.2323 H   0  0  0  0  0  0  0  0  0  0  0  0
    2.2033   -5.6266   -3.2654 H   0  0  0  0  0  0  0  0  0  0  0  0
    2.9252   -7.4929   -0.9354 H   0  0  0  0  0  0  0  0  0  0  0  0
    3.2572   -7.8009   -2.6411 H   0  0  0  0  0  0  0  0  0  0  0  0
    0.7818   -7.4952   -3.0140 H   0  0  0  0  0  0  0  0  0  0  0  0
    1.6999   -8.9547   -0.0753 H   0  0  0  0  0  0  0  0  0  0  0  0
    0.3278   -9.6751   -3.5246 H   0  0  0  0  0  0  0  0  0  0  0  0
   -0.2469  -10.5575   -2.2494 H   0  0  0  0  0  0  0  0  0  0  0  0
    3.1228   -2.8435   -0.0846 H   0  0  0  0  0  0  0  0  0  0  0  0
    6.3078   -2.9298    1.3566 H   0  0  0  0  0  0  0  0  0  0  0  0
    5.5913   -2.3733   -1.5826 H   0  0  0  0  0  0  0  0  0  0  0  0
    6.7036   -3.5986   -1.0438 H   0  0  0  0  0  0  0  0  0  0  0  0
    8.1998   -1.9516   -0.0119 H   0  0  0  0  0  0  0  0  0  0  0  0
    7.0823   -0.6392   -0.3569 H   0  0  0  0  0  0  0  0  0  0  0  0
    7.3176   -1.0608   -2.8137 H   0  0  0  0  0  0  0  0  0  0  0  0
    8.8347   -0.5939   -2.0159 H   0  0  0  0  0  0  0  0  0  0  0  0
    9.2291   -3.0929   -1.8349 H   0  0  0  0  0  0  0  0  0  0  0  0
    8.7723   -1.0874   -4.5172 H   0  0  0  0  0  0  0  0  0  0  0  0
   10.4995   -3.8924   -4.7544 H   0  0  0  0  0  0  0  0  0  0  0  0
    9.5614   -4.6420   -3.6145 H   0  0  0  0  0  0  0  0  0  0  0  0
    4.6063   -1.6166    2.0432 H   0  0  0  0  0  0  0  0  0  0  0  0
    2.5170    0.2927    1.1554 H   0  0  0  0  0  0  0  0  0  0  0  0
    3.4450    1.5198    3.1037 H   0  0  0  0  0  0  0  0  0  0  0  0
    3.9022   -0.1556    3.1534 H   0  0  0  0  0  0  0  0  0  0  0  0
    6.1465    0.6612    1.9693 H   0  0  0  0  0  0  0  0  0  0  0  0
    5.5967    2.2737    2.3858 H   0  0  0  0  0  0  0  0  0  0  0  0
    5.4762    1.6314    4.7930 H   0  0  0  0  0  0  0  0  0  0  0  0
    7.1046    1.5133    4.1378 H   0  0  0  0  0  0  0  0  0  0  0  0
    6.0645   -0.3973    5.5275 H   0  0  0  0  0  0  0  0  0  0  0  0
    8.4960   -1.7609    2.9341 H   0  0  0  0  0  0  0  0  0  0  0  0
    6.1835   -2.6225    5.0646 H   0  0  0  0  0  0  0  0  0  0  0  0
    7.6022   -3.0931    4.3291 H   0  0  0  0  0  0  0  0  0  0  0  0
    4.0205    1.7618   -0.5610 H   0  0  0  0  0  0  0  0  0  0  0  0
    4.0329    4.0156   -0.7876 H   0  0  0  0  0  0  0  0  0  0  0  0
    4.4100    5.0583    1.4149 H   0  0  0  0  0  0  0  0  0  0  0  0
    2.7064    5.3687    1.6285 H   0  0  0  0  0  0  0  0  0  0  0  0
    5.4247    6.1532   -0.9151 H   0  0  0  0  0  0  0  0  0  0  0  0
    5.6806    8.3734   -1.9182 H   0  0  0  0  0  0  0  0  0  0  0  0
    4.9073   10.7306   -2.1790 H   0  0  0  0  0  0  0  0  0  0  0  0
    3.3161   12.5244   -1.6061 H   0  0  0  0  0  0  0  0  0  0  0  0
    1.4570   12.0867   -0.0229 H   0  0  0  0  0  0  0  0  0  0  0  0
    1.1893    9.8555    0.9879 H   0  0  0  0  0  0  0  0  0  0  0  0
    1.9616    7.5216    1.2512 H   0  0  0  0  0  0  0  0  0  0  0  0
    1.1185    4.6476   -0.4786 H   0  0  0  0  0  0  0  0  0  0  0  0
    0.2844    3.8091   -3.5746 H   0  0  0  0  0  0  0  0  0  0  0  0
    1.6319    5.2316   -4.9221 H   0  0  0  0  0  0  0  0  0  0  0  0
    1.9106    6.3900   -3.6339 H   0  0  0  0  0  0  0  0  0  0  0  0
    0.3220    7.3032   -5.3149 H   0  0  0  0  0  0  0  0  0  0  0  0
   -0.7501    5.9345   -5.0580 H   0  0  0  0  0  0  0  0  0  0  0  0
   -1.7763    7.3654   -3.6164 H   0  0  0  0  0  0  0  0  0  0  0  0
   -0.3592    8.3632   -3.3710 H   0  0  0  0  0  0  0  0  0  0  0  0
   -1.2009    6.9904   -1.3324 H   0  0  0  0  0  0  0  0  0  0  0  0
    0.5175    6.9989   -1.6537 H   0  0  0  0  0  0  0  0  0  0  0  0
  1  2  1  0
  2  3  1  0
  3  4  1  0
  4  5  2  0
  4  6  1  0
  4  7  1  0
  2  8  1  0
  8  9  1  0
  9 10  1  0
 10 11  2  0
 10 12  1  0
 12 13  1  0
 13 14  1  0
 14 15  1  0
 15 16  1  0
 16 17  1  0
 17 18  2  3
 17 19  1  0
 12 20  1  0
 20 21  1  0
 21 22  2  0
 21 23  1  0
 23 24  1  0
 24 25  1  0
 25 26  1  0
 26 27  1  0
 27 28  1  0
 28 29  2  3
 28 30  1  0
 23 31  1  0
 31 32  1  0
 32 33  2  0
 32 34  1  0
 34 35  1  0
 35 36  1  0
 36 37  1  0
 37 38  1  0
 37 39  2  0
 34 40  1  0
 40 41  1  0
 41 42  2  0
 41 43  1  0
 43 44  1  0
 44 45  1  0
 45 46  1  0
 46 47  1  0
 47 48  1  0
 48 49  2  3
 48 50  1  0
 43 51  1  0
 51 52  1  0
 52 53  2  0
 52 54  1  0
 54 55  1  0
 55 56  1  0
 56 57  1  0
 57 58  1  0
 58 59  1  0
 59 60  2  3
 59 61  1  0
 54 62  1  0
 62 63  1  0
 63 64  2  0
 63 65  1  0
 65 66  1  0
 66 67  1  0
 67 68  1  0
 68 69  1  0
 69 70  1  0
 70 71  2  3
 70 72  1  0
 65 73  1  0
 73 74  1  0
 74 75  2  0
 74 76  1  0
 76 77  1  0
 77 78  1  0
 78 79  1  0
 79 80  1  0
 80 81  1  0
 81 82  2  3
 81 83  1  0
 76 84  1  0
 84 85  1  0
 85 86  2  0
 85 87  1  0
 87 88  1  0
 88 89  1  0
 89 90  1  0
 90 91  2  0
 91 92  1  0
 92 93  2  0
 93 94  1  0
 94 95  2  0
 95 96  1  0
 96 97  2  0
 97 98  1  0
 87 99  1  0
 99100  1  0
100101  2  0
100102  1  0
102103  1  0
103104  1  0
104105  1  0
105106  1  0
106107  1  0
107108  1  0
108109  2  0
108  8  1  0
 98 89  2  0
107102  1  0
 97 92  1  0
  1110  1  0
  1111  1  0
  1112  1  0
  2113  1  6
  6114  1  0
  7115  1  0
  8116  1  1
  9117  1  0
 12118  1  1
 13119  1  0
 13120  1  0
 14121  1  0
 14122  1  0
 15123  1  0
 15124  1  0
 16125  1  0
 18126  1  0
 19127  1  0
 19128  1  0
 20129  1  0
 23130  1  1
 24131  1  0
 24132  1  0
 25133  1  0
 25134  1  0
 26135  1  0
 26136  1  0
 27137  1  0
 29138  1  0
 30139  1  0
 30140  1  0
 31141  1  0
 34142  1  6
 35143  1  0
 35144  1  0
 36145  1  0
 36146  1  0
 38147  1  0
 38148  1  0
 40149  1  0
 43150  1  1
 44151  1  0
 44152  1  0
 45153  1  0
 45154  1  0
 46155  1  0
 46156  1  0
 47157  1  0
 49158  1  0
 50159  1  0
 50160  1  0
 51161  1  0
 54162  1  1
 55163  1  0
 55164  1  0
 56165  1  0
 56166  1  0
 57167  1  0
 57168  1  0
 58169  1  0
 60170  1  0
 61171  1  0
 61172  1  0
 62173  1  0
 65174  1  1
 66175  1  0
 66176  1  0
 67177  1  0
 67178  1  0
 68179  1  0
 68180  1  0
 69181  1  0
 71182  1  0
 72183  1  0
 72184  1  0
 73185  1  0
 76186  1  1
 77187  1  0
 77188  1  0
 78189  1  0
 78190  1  0
 79191  1  0
 79192  1  0
 80193  1  0
 82194  1  0
 83195  1  0
 83196  1  0
 84197  1  0
 87198  1  6
 88199  1  0
 88200  1  0
 90201  1  0
 91202  1  0
 93203  1  0
 94204  1  0
 95205  1  0
 96206  1  0
 98207  1  0
 99208  1  0
102209  1  6
103210  1  0
103211  1  0
104212  1  0
104213  1  0
105214  1  0
105215  1  0
106216  1  0
106217  1  0
M  END
$$$$
