
     RDKit          3D

 47 49  0  0  0  0  0  0  0  0999 V2000
   -4.6004   -2.7049    0.8148 C   0  0  0  0  0  0  0  0  0  0  0  0
   -3.5176   -2.5460   -0.2111 C   0  0  0  0  0  0  0  0  0  0  0  0
   -2.8246   -3.6612   -0.6924 C   0  0  0  0  0  0  0  0  0  0  0  0
   -1.8369   -3.5116   -1.6655 C   0  0  0  0  0  0  0  0  0  0  0  0
   -1.5377   -2.2469   -2.1720 C   0  0  0  0  0  0  0  0  0  0  0  0
   -2.2276   -1.1185   -1.7119 C   0  0  0  0  0  0  0  0  0  0  0  0
   -1.9029    0.2543   -2.2554 C   0  0  0  0  0  0  0  0  0  0  0  0
   -1.2431    1.1862   -1.2182 C   0  0  2  0  0  0  0  0  0  0  0  0
   -1.0497    2.5894   -1.8348 C   0  0  0  0  0  0  0  0  0  0  0  0
   -0.2957    3.4523   -1.0001 O   0  0  0  0  0  0  0  0  0  0  0  0
   -1.0111    4.3283    0.1292 P   0  0  0  0  0  0  0  0  0  0  0  0
   -0.1309    5.1969    0.9572 O   0  0  0  0  0  0  0  0  0  0  0  0
   -1.9093    3.3073    0.9593 O   0  0  0  0  0  0  0  0  0  0  0  0
   -2.1207    5.1555   -0.6719 O   0  0  0  0  0  0  0  0  0  0  0  0
    0.0271    0.6354   -0.7400 N   0  0  0  0  0  0  0  0  0  0  0  0
    0.5330    0.8913    0.5180 C   0  0  0  0  0  0  0  0  0  0  0  0
   -0.1062    1.5453    1.3457 O   0  0  0  0  0  0  0  0  0  0  0  0
    1.8590    0.3563    0.7923 C   0  0  0  0  0  0  0  0  0  0  0  0
    2.5962    0.5391    1.9456 C   0  0  0  0  0  0  0  0  0  0  0  0
    3.8768   -0.1050    1.9145 C   0  0  0  0  0  0  0  0  0  0  0  0
    4.9117   -0.1437    2.8791 C   0  0  0  0  0  0  0  0  0  0  0  0
    6.0933   -0.8455    2.6210 C   0  0  0  0  0  0  0  0  0  0  0  0
    6.2620   -1.5138    1.4170 C   0  0  0  0  0  0  0  0  0  0  0  0
    5.2569   -1.4947    0.4470 C   0  0  0  0  0  0  0  0  0  0  0  0
    4.0697   -0.7835    0.7100 C   0  0  0  0  0  0  0  0  0  0  0  0
    2.7081   -0.6134   -0.3286 S   0  0  0  0  0  0  0  0  0  0  0  0
   -3.2238   -1.2808   -0.7369 C   0  0  0  0  0  0  0  0  0  0  0  0
   -4.6132   -1.8509    1.5000 H   0  0  0  0  0  0  0  0  0  0  0  0
   -5.5746   -2.7812    0.3222 H   0  0  0  0  0  0  0  0  0  0  0  0
   -4.4411   -3.6036    1.4198 H   0  0  0  0  0  0  0  0  0  0  0  0
   -3.0494   -4.6546   -0.3108 H   0  0  0  0  0  0  0  0  0  0  0  0
   -1.3008   -4.3835   -2.0302 H   0  0  0  0  0  0  0  0  0  0  0  0
   -0.7638   -2.1538   -2.9298 H   0  0  0  0  0  0  0  0  0  0  0  0
   -2.8336    0.7038   -2.6245 H   0  0  0  0  0  0  0  0  0  0  0  0
   -1.2466    0.1538   -3.1295 H   0  0  0  0  0  0  0  0  0  0  0  0
   -1.9022    1.2705   -0.3493 H   0  0  0  0  0  0  0  0  0  0  0  0
   -2.0183    3.0399   -2.0766 H   0  0  0  0  0  0  0  0  0  0  0  0
   -0.4920    2.5046   -2.7744 H   0  0  0  0  0  0  0  0  0  0  0  0
   -1.3183    2.6904    1.4585 H   0  0  0  0  0  0  0  0  0  0  0  0
   -2.4450    5.8861   -0.1150 H   0  0  0  0  0  0  0  0  0  0  0  0
    0.6352    0.1611   -1.3954 H   0  0  0  0  0  0  0  0  0  0  0  0
    2.2334    1.1236    2.7838 H   0  0  0  0  0  0  0  0  0  0  0  0
    4.7908    0.3788    3.8253 H   0  0  0  0  0  0  0  0  0  0  0  0
    6.8821   -0.8646    3.3691 H   0  0  0  0  0  0  0  0  0  0  0  0
    7.1846   -2.0566    1.2238 H   0  0  0  0  0  0  0  0  0  0  0  0
    5.3930   -2.0180   -0.4954 H   0  0  0  0  0  0  0  0  0  0  0  0
   -3.7756   -0.4142   -0.3769 H   0  0  0  0  0  0  0  0  0  0  0  0
  1  2  1  0
  2  3  1  0
  3  4  2  0
  4  5  1  0
  5  6  2  0
  6  7  1  0
  7  8  1  0
  8  9  1  0
  9 10  1  0
 10 11  1  0
 11 12  2  0
 11 13  1  0
 11 14  1  0
  8 15  1  0
 15 16  1  0
 16 17  2  0
 16 18  1  0
 18 19  2  0
 19 20  1  0
 20 21  2  0
 21 22  1  0
 22 23  2  0
 23 24  1  0
 24 25  2  0
 25 26  1  0
  6 27  1  0
 27  2  2  0
 26 18  1  0
 25 20  1  0
  1 28  1  0
  1 29  1  0
  1 30  1  0
  3 31  1  0
  4 32  1  0
  5 33  1  0
  7 34  1  0
  7 35  1  0
  8 36  1  1
  9 37  1  0
  9 38  1  0
 13 39  1  0
 14 40  1  0
 15 41  1  0
 19 42  1  0
 21 43  1  0
 22 44  1  0
 23 45  1  0
 24 46  1  0
 27 47  1  0
M  END
$$$$
