
     RDKit          3D

 53 57  0  0  0  0  0  0  0  0999 V2000
   -0.7132   -2.5999    1.6639 O   0  0  0  0  0  0  0  0  0  0  0  0
   -0.4151   -2.2959    0.5160 C   0  0  0  0  0  0  0  0  0  0  0  0
   -1.3691   -1.6648   -0.4712 C   0  0  0  0  0  0  0  0  0  0  0  0
   -2.5927   -1.0211    0.1873 C   0  0  0  0  0  0  0  0  0  0  0  0
   -3.5669   -0.5531   -0.8959 C   0  0  0  0  0  0  0  0  0  0  0  0
   -4.2580   -1.3232   -1.8215 C   0  0  0  0  0  0  0  0  0  0  0  0
   -5.0798   -0.6683   -2.7407 C   0  0  0  0  0  0  0  0  0  0  0  0
   -5.2063    0.7304   -2.7213 C   0  0  0  0  0  0  0  0  0  0  0  0
   -4.5167    1.4993   -1.7782 C   0  0  0  0  0  0  0  0  0  0  0  0
   -3.6981    0.8518   -0.8674 C   0  0  0  0  0  0  0  0  0  0  0  0
   -2.8996    1.3759    0.2194 C   0  0  0  0  0  0  0  0  0  0  0  0
   -2.7276    2.6793    0.6600 C   0  0  0  0  0  0  0  0  0  0  0  0
   -1.9376    2.9035    1.7913 C   0  0  0  0  0  0  0  0  0  0  0  0
   -1.3465    1.8313    2.4773 C   0  0  0  0  0  0  0  0  0  0  0  0
   -1.5174    0.5186    2.0316 C   0  0  0  0  0  0  0  0  0  0  0  0
   -2.2700    0.3020    0.8859 C   0  0  0  0  0  0  0  0  0  0  0  0
    0.8322   -2.5145   -0.0081 N   0  0  0  0  0  0  0  0  0  0  0  0
    1.9502   -3.0377    0.7825 C   0  0  2  0  0  0  0  0  0  0  0  0
    2.4966   -2.0119    1.7917 C   0  0  0  0  0  0  0  0  0  0  0  0
    2.9004   -0.7098    1.1613 C   0  0  0  0  0  0  0  0  0  0  0  0
    4.1115   -0.2915    0.6466 C   0  0  0  0  0  0  0  0  0  0  0  0
    3.9457    1.0314    0.1528 C   0  0  0  0  0  0  0  0  0  0  0  0
    4.8022    1.9574   -0.4758 C   0  0  0  0  0  0  0  0  0  0  0  0
    4.2989    3.2104   -0.8448 C   0  0  0  0  0  0  0  0  0  0  0  0
    2.9707    3.5335   -0.5938 C   0  0  0  0  0  0  0  0  0  0  0  0
    2.5143    4.7401   -0.9563 F   0  0  0  0  0  0  0  0  0  0  0  0
    2.0986    2.6406    0.0261 C   0  0  0  0  0  0  0  0  0  0  0  0
    2.6194    1.3941    0.3903 C   0  0  0  0  0  0  0  0  0  0  0  0
    2.0136    0.3301    1.0152 N   0  0  0  0  0  0  0  0  0  0  0  0
    3.0777   -3.5317   -0.1278 C   0  0  0  0  0  0  0  0  0  0  0  0
    4.1279   -4.0435    0.2293 O   0  0  0  0  0  0  0  0  0  0  0  0
    2.8276   -3.3553   -1.4475 O   0  0  0  0  0  0  0  0  0  0  0  0
   -0.8231   -0.9256   -1.0710 H   0  0  0  0  0  0  0  0  0  0  0  0
   -1.6808   -2.4674   -1.1501 H   0  0  0  0  0  0  0  0  0  0  0  0
   -3.1120   -1.6899    0.8835 H   0  0  0  0  0  0  0  0  0  0  0  0
   -4.1681   -2.4055   -1.8373 H   0  0  0  0  0  0  0  0  0  0  0  0
   -5.6305   -1.2462   -3.4803 H   0  0  0  0  0  0  0  0  0  0  0  0
   -5.8545    1.2198   -3.4447 H   0  0  0  0  0  0  0  0  0  0  0  0
   -4.6326    2.5762   -1.7643 H   0  0  0  0  0  0  0  0  0  0  0  0
   -3.2037    3.5125    0.1537 H   0  0  0  0  0  0  0  0  0  0  0  0
   -1.7974    3.9186    2.1574 H   0  0  0  0  0  0  0  0  0  0  0  0
   -0.7627    2.0257    3.3745 H   0  0  0  0  0  0  0  0  0  0  0  0
   -1.0852   -0.3061    2.5898 H   0  0  0  0  0  0  0  0  0  0  0  0
    1.0479   -2.2546   -0.9658 H   0  0  0  0  0  0  0  0  0  0  0  0
    1.5745   -3.9159    1.3224 H   0  0  0  0  0  0  0  0  0  0  0  0
    3.3624   -2.4326    2.3187 H   0  0  0  0  0  0  0  0  0  0  0  0
    1.7392   -1.8112    2.5599 H   0  0  0  0  0  0  0  0  0  0  0  0
    5.0232   -0.8761    0.6226 H   0  0  0  0  0  0  0  0  0  0  0  0
    5.8405    1.7047   -0.6709 H   0  0  0  0  0  0  0  0  0  0  0  0
    4.9426    3.9383   -1.3281 H   0  0  0  0  0  0  0  0  0  0  0  0
    1.0662    2.9134    0.2130 H   0  0  0  0  0  0  0  0  0  0  0  0
    1.0467    0.3203    1.3106 H   0  0  0  0  0  0  0  0  0  0  0  0
    3.6344   -3.7058   -1.8844 H   0  0  0  0  0  0  0  0  0  0  0  0
  1  2  2  0
  2  3  1  0
  3  4  1  0
  4  5  1  0
  5  6  2  0
  6  7  1  0
  7  8  2  0
  8  9  1  0
  9 10  2  0
 10 11  1  0
 11 12  2  0
 12 13  1  0
 13 14  2  0
 14 15  1  0
 15 16  2  0
  2 17  1  0
 17 18  1  0
 18 19  1  0
 19 20  1  0
 20 21  2  0
 21 22  1  0
 22 23  2  0
 23 24  1  0
 24 25  2  0
 25 26  1  0
 25 27  1  0
 27 28  2  0
 28 29  1  0
 18 30  1  0
 30 31  2  0
 30 32  1  0
 16  4  1  0
 29 20  1  0
 10  5  1  0
 16 11  1  0
 28 22  1  0
  3 33  1  0
  3 34  1  0
  4 35  1  0
  6 36  1  0
  7 37  1  0
  8 38  1  0
  9 39  1  0
 12 40  1  0
 13 41  1  0
 14 42  1  0
 15 43  1  0
 17 44  1  0
 18 45  1  1
 19 46  1  0
 19 47  1  0
 21 48  1  0
 23 49  1  0
 24 50  1  0
 27 51  1  0
 29 52  1  0
 32 53  1  0
M  END
$$$$
