
     RDKit          3D

 41 44  0  0  0  0  0  0  0  0999 V2000
   -0.8238    0.0027   -2.9668 O   0  0  0  0  0  0  0  0  0  0  0  0
   -0.9463    0.5982   -1.8979 C   0  0  0  0  0  0  0  0  0  0  0  0
   -0.0930    1.6152   -1.5567 N   0  0  0  0  0  0  0  0  0  0  0  0
    0.9925    2.1059   -2.4114 C   0  0  2  0  0  0  0  0  0  0  0  0
    2.0549    1.0511   -2.7491 C   0  0  0  0  0  0  0  0  0  0  0  0
    2.5324    0.3234   -1.5369 C   0  0  0  0  0  0  0  0  0  0  0  0
    3.3090    0.7994   -0.5867 N   0  0  0  0  0  0  0  0  0  0  0  0
    3.4302   -0.2137    0.3329 C   0  0  0  0  0  0  0  0  0  0  0  0
    4.1408   -0.2436    1.5398 C   0  0  0  0  0  0  0  0  0  0  0  0
    4.0882   -1.4127    2.3039 C   0  0  0  0  0  0  0  0  0  0  0  0
    4.9485   -1.4823    3.7960 Cl  0  0  0  0  0  0  0  0  0  0  0  0
    3.3523   -2.5254    1.8870 C   0  0  0  0  0  0  0  0  0  0  0  0
    2.6389   -2.5100    0.6826 C   0  0  0  0  0  0  0  0  0  0  0  0
    2.7067   -1.3330   -0.0646 C   0  0  0  0  0  0  0  0  0  0  0  0
    2.1500   -0.9677   -1.2630 N   0  0  0  0  0  0  0  0  0  0  0  0
    1.6628    3.3271   -1.7765 C   0  0  0  0  0  0  0  0  0  0  0  0
    2.5610    3.9943   -2.2657 O   0  0  0  0  0  0  0  0  0  0  0  0
    1.1493    3.6601   -0.5680 O   0  0  0  0  0  0  0  0  0  0  0  0
   -1.9610    0.2525   -0.9141 C   0  0  0  0  0  0  0  0  0  0  0  0
   -2.9447   -0.7066   -1.0514 C   0  0  0  0  0  0  0  0  0  0  0  0
   -3.7926   -0.8257    0.0987 C   0  0  0  0  0  0  0  0  0  0  0  0
   -4.8960   -1.6769    0.3460 C   0  0  0  0  0  0  0  0  0  0  0  0
   -5.5793   -1.6129    1.5640 C   0  0  0  0  0  0  0  0  0  0  0  0
   -5.1821   -0.7134    2.5436 C   0  0  0  0  0  0  0  0  0  0  0  0
   -4.0972    0.1392    2.3271 C   0  0  0  0  0  0  0  0  0  0  0  0
   -3.4122    0.0713    1.0983 C   0  0  0  0  0  0  0  0  0  0  0  0
   -2.0589    1.0154    0.6108 S   0  0  0  0  0  0  0  0  0  0  0  0
   -0.1843    2.0594   -0.6463 H   0  0  0  0  0  0  0  0  0  0  0  0
    0.5210    2.4571   -3.3375 H   0  0  0  0  0  0  0  0  0  0  0  0
    1.6496    0.3312   -3.4701 H   0  0  0  0  0  0  0  0  0  0  0  0
    2.9168    1.5180   -3.2414 H   0  0  0  0  0  0  0  0  0  0  0  0
    4.7086    0.6225    1.8580 H   0  0  0  0  0  0  0  0  0  0  0  0
    3.3295   -3.4215    2.5037 H   0  0  0  0  0  0  0  0  0  0  0  0
    2.0664   -3.3707    0.3541 H   0  0  0  0  0  0  0  0  0  0  0  0
    1.5395   -1.5341   -1.8364 H   0  0  0  0  0  0  0  0  0  0  0  0
    1.7280    4.3956   -0.2721 H   0  0  0  0  0  0  0  0  0  0  0  0
   -3.0552   -1.3049   -1.9490 H   0  0  0  0  0  0  0  0  0  0  0  0
   -5.2169   -2.3854   -0.4138 H   0  0  0  0  0  0  0  0  0  0  0  0
   -6.4259   -2.2718    1.7425 H   0  0  0  0  0  0  0  0  0  0  0  0
   -5.7189   -0.6698    3.4886 H   0  0  0  0  0  0  0  0  0  0  0  0
   -3.7888    0.8423    3.0957 H   0  0  0  0  0  0  0  0  0  0  0  0
  1  2  2  0
  2  3  1  0
  3  4  1  0
  4  5  1  0
  5  6  1  0
  6  7  2  0
  7  8  1  0
  8  9  2  0
  9 10  1  0
 10 11  1  0
 10 12  2  0
 12 13  1  0
 13 14  2  0
 14 15  1  0
  4 16  1  0
 16 17  2  0
 16 18  1  0
  2 19  1  0
 19 20  2  0
 20 21  1  0
 21 22  2  0
 22 23  1  0
 23 24  2  0
 24 25  1  0
 25 26  2  0
 26 27  1  0
 15  6  1  0
 27 19  1  0
 14  8  1  0
 26 21  1  0
  3 28  1  0
  4 29  1  6
  5 30  1  0
  5 31  1  0
  9 32  1  0
 12 33  1  0
 13 34  1  0
 15 35  1  0
 18 36  1  0
 20 37  1  0
 22 38  1  0
 23 39  1  0
 24 40  1  0
 25 41  1  0
M  END
$$$$
