
     RDKit          3D

194197  0  0  0  0  0  0  0  0999 V2000
    2.4342   -6.6284   -2.0020 C   0  0  0  0  0  0  0  0  0  0  0  0
    2.2590   -6.0303   -0.6077 C   0  0  1  0  0  0  0  0  0  0  0  0
    3.5452   -5.6071   -0.1619 O   0  0  0  0  0  0  0  0  0  0  0  0
    4.3071   -6.3764    1.0159 P   0  0  0  0  0  0  0  0  0  0  0  0
    5.5205   -5.7239    1.5911 O   0  0  0  0  0  0  0  0  0  0  0  0
    4.5578   -7.8364    0.4240 O   0  0  0  0  0  0  0  0  0  0  0  0
    3.1725   -6.6496    2.1065 O   0  0  0  0  0  0  0  0  0  0  0  0
    1.2966   -4.8180   -0.5652 C   0  0  1  0  0  0  0  0  0  0  0  0
    1.8587   -3.6937   -1.3338 N   0  0  0  0  0  0  0  0  0  0  0  0
    2.7889   -2.8284   -0.8109 C   0  0  0  0  0  0  0  0  0  0  0  0
    3.1041   -2.8175    0.3771 O   0  0  0  0  0  0  0  0  0  0  0  0
    3.4796   -1.9334   -1.8621 C   0  0  2  0  0  0  0  0  0  0  0  0
    4.3810   -2.7748   -2.7907 C   0  0  0  0  0  0  0  0  0  0  0  0
    5.5589   -3.4613   -2.0787 C   0  0  0  0  0  0  0  0  0  0  0  0
    6.2719   -4.4573   -2.9958 C   0  0  0  0  0  0  0  0  0  0  0  0
    7.2815   -5.1943   -2.2535 N   0  0  0  0  0  0  0  0  0  0  0  0
    7.0043   -6.1829   -1.3807 C   0  0  0  0  0  0  0  0  0  0  0  0
    6.1102   -7.0988   -1.5003 N   0  0  0  0  0  0  0  0  0  0  0  0
    7.8020   -6.1460   -0.2979 N   0  0  0  0  0  0  0  0  0  0  0  0
    4.2535   -0.8951   -1.1911 N   0  0  0  0  0  0  0  0  0  0  0  0
    3.6525    0.2827   -0.8003 C   0  0  0  0  0  0  0  0  0  0  0  0
    2.5033    0.5771   -1.1338 O   0  0  0  0  0  0  0  0  0  0  0  0
    4.5533    1.2219    0.0327 C   0  0  2  0  0  0  0  0  0  0  0  0
    4.6561    0.8590    1.5214 C   0  0  0  0  0  0  0  0  0  0  0  0
    5.3559   -0.4598    1.8749 C   0  0  0  0  0  0  0  0  0  0  0  0
    6.7796   -0.5946    1.3348 C   0  0  0  0  0  0  0  0  0  0  0  0
    7.2666   -1.9467    1.5432 N   0  0  0  0  0  0  0  0  0  0  0  0
    8.3510   -2.4630    0.9285 C   0  0  0  0  0  0  0  0  0  0  0  0
    9.2296   -1.8600    0.2172 N   0  0  0  0  0  0  0  0  0  0  0  0
    8.4803   -3.7833    1.1463 N   0  0  0  0  0  0  0  0  0  0  0  0
    3.9900    2.5579   -0.1083 N   0  0  0  0  0  0  0  0  0  0  0  0
    4.7562    3.6999   -0.1429 C   0  0  0  0  0  0  0  0  0  0  0  0
    5.9854    3.6627   -0.1369 O   0  0  0  0  0  0  0  0  0  0  0  0
    3.9406    4.9952   -0.4041 C   0  0  2  0  0  0  0  0  0  0  0  0
    4.7219    6.2699   -0.0425 C   0  0  0  0  0  0  0  0  0  0  0  0
    4.1836    7.5571   -0.6882 C   0  0  0  0  0  0  0  0  0  0  0  0
    2.8415    8.0364   -0.1360 C   0  0  0  0  0  0  0  0  0  0  0  0
    2.5507    9.3900   -0.6054 N   0  0  0  0  0  0  0  0  0  0  0  0
    2.1210    9.6283   -1.8679 C   0  0  0  0  0  0  0  0  0  0  0  0
    1.5292    8.7554   -2.6005 N   0  0  0  0  0  0  0  0  0  0  0  0
    2.2771   10.9066   -2.2513 N   0  0  0  0  0  0  0  0  0  0  0  0
    2.6078    4.9441    0.1756 N   0  0  0  0  0  0  0  0  0  0  0  0
    2.3618    4.9196    1.5364 C   0  0  0  0  0  0  0  0  0  0  0  0
    3.2585    4.7943    2.3650 O   0  0  0  0  0  0  0  0  0  0  0  0
    0.9031    5.2724    1.9139 C   0  0  2  0  0  0  0  0  0  0  0  0
    0.4575    4.6467    3.2443 C   0  0  0  0  0  0  0  0  0  0  0  0
   -0.9026    5.1614    3.7244 C   0  0  0  0  0  0  0  0  0  0  0  0
   -0.8161    6.5936    4.2071 C   0  0  0  0  0  0  0  0  0  0  0  0
   -1.6901    7.4586    3.6220 N   0  0  0  0  0  0  0  0  0  0  0  0
   -0.0359    6.9665    5.0730 O   0  0  0  0  0  0  0  0  0  0  0  0
   -0.0314    5.0649    0.7977 N   0  0  0  0  0  0  0  0  0  0  0  0
   -0.4105    3.8073    0.3853 C   0  0  0  0  0  0  0  0  0  0  0  0
    0.1565    2.8092    0.8260 O   0  0  0  0  0  0  0  0  0  0  0  0
   -1.5483    3.6723   -0.6604 C   0  0  2  0  0  0  0  0  0  0  0  0
   -2.2205    4.9556   -1.1623 C   0  0  0  0  0  0  0  0  0  0  0  0
   -3.1641    5.6173   -0.1474 C   0  0  0  0  0  0  0  0  0  0  0  0
   -3.6291    7.0135   -0.5606 C   0  0  0  0  0  0  0  0  0  0  0  0
   -2.5520    7.8993   -0.9667 N   0  0  0  0  0  0  0  0  0  0  0  0
   -1.5186    8.2674   -0.1780 C   0  0  0  0  0  0  0  0  0  0  0  0
   -1.1584    7.6946    0.9116 N   0  0  0  0  0  0  0  0  0  0  0  0
   -0.8469    9.3078   -0.7036 N   0  0  0  0  0  0  0  0  0  0  0  0
   -2.5295    2.7311   -0.1259 N   0  0  0  0  0  0  0  0  0  0  0  0
   -3.0089    1.6642   -0.8535 C   0  0  0  0  0  0  0  0  0  0  0  0
   -2.7267    1.5005   -2.0458 O   0  0  0  0  0  0  0  0  0  0  0  0
   -4.0857    0.7849   -0.1575 C   0  0  2  0  0  0  0  0  0  0  0  0
   -3.8864    0.5685    1.3555 C   0  0  0  0  0  0  0  0  0  0  0  0
   -4.9413   -0.3069    2.0476 C   0  0  0  0  0  0  0  0  0  0  0  0
   -6.2483    0.4245    2.3712 C   0  0  0  0  0  0  0  0  0  0  0  0
   -6.9634    0.7623    1.1484 N   0  0  0  0  0  0  0  0  0  0  0  0
   -8.1017    1.4914    1.1922 C   0  0  0  0  0  0  0  0  0  0  0  0
   -8.5712    2.0356    2.2571 N   0  0  0  0  0  0  0  0  0  0  0  0
   -8.6825    1.6369   -0.0110 N   0  0  0  0  0  0  0  0  0  0  0  0
   -4.2420   -0.4241   -0.9883 N   0  0  0  0  0  0  0  0  0  0  0  0
   -3.5768   -1.6142   -0.7838 C   0  0  0  0  0  0  0  0  0  0  0  0
   -2.8807   -1.8353    0.2089 O   0  0  0  0  0  0  0  0  0  0  0  0
   -3.7120   -2.6817   -1.9032 C   0  0  2  0  0  0  0  0  0  0  0  0
   -5.1238   -2.7863   -2.5237 C   0  0  0  0  0  0  0  0  0  0  0  0
   -6.2677   -3.0858   -1.5777 C   0  0  0  0  0  0  0  0  0  0  0  0
   -7.1826   -2.0887   -1.2280 C   0  0  0  0  0  0  0  0  0  0  0  0
   -8.2452   -2.3684   -0.3623 C   0  0  0  0  0  0  0  0  0  0  0  0
   -8.4229   -3.6550    0.1657 C   0  0  0  0  0  0  0  0  0  0  0  0
   -9.4827   -3.9526    1.0392 C   0  0  0  0  0  0  0  0  0  0  0  0
   -9.6475   -5.2438    1.5419 C   0  0  0  0  0  0  0  0  0  0  0  0
   -8.7603   -6.2519    1.1818 C   0  0  0  0  0  0  0  0  0  0  0  0
   -7.7030   -5.9702    0.3164 C   0  0  0  0  0  0  0  0  0  0  0  0
   -7.5189   -4.6767   -0.1989 C   0  0  0  0  0  0  0  0  0  0  0  0
   -6.4590   -4.3791   -1.0722 C   0  0  0  0  0  0  0  0  0  0  0  0
   -3.1929   -3.9271   -1.3292 N   0  0  0  0  0  0  0  0  0  0  0  0
   -2.9550   -5.0719   -2.0559 C   0  0  0  0  0  0  0  0  0  0  0  0
   -3.4001   -5.2518   -3.1883 O   0  0  0  0  0  0  0  0  0  0  0  0
   -2.2648   -6.2115   -1.2522 C   0  0  2  0  0  0  0  0  0  0  0  0
   -3.3898   -6.8507   -0.4102 C   0  0  0  0  0  0  0  0  0  0  0  0
   -2.8775   -7.7566    0.6959 C   0  0  0  0  0  0  0  0  0  0  0  0
   -1.9358   -6.9560    1.5758 C   0  0  0  0  0  0  0  0  0  0  0  0
   -0.7454   -6.4884    0.7535 C   0  0  0  0  0  0  0  0  0  0  0  0
   -1.1018   -5.7264   -0.4466 N   0  0  0  0  0  0  0  0  0  0  0  0
   -0.0789   -5.1263   -1.2069 C   0  0  0  0  0  0  0  0  0  0  0  0
   -0.2542   -4.8277   -2.3959 O   0  0  0  0  0  0  0  0  0  0  0  0
    2.8361   -5.8968   -2.7057 H   0  0  0  0  0  0  0  0  0  0  0  0
    1.4925   -7.0186   -2.3964 H   0  0  0  0  0  0  0  0  0  0  0  0
    3.1491   -7.4581   -1.9730 H   0  0  0  0  0  0  0  0  0  0  0  0
    1.8870   -6.8224    0.0461 H   0  0  0  0  0  0  0  0  0  0  0  0
    5.2016   -7.7625   -0.3347 H   0  0  0  0  0  0  0  0  0  0  0  0
    3.5914   -6.9362    2.9389 H   0  0  0  0  0  0  0  0  0  0  0  0
    1.1688   -4.4542    0.4576 H   0  0  0  0  0  0  0  0  0  0  0  0
    1.5189   -3.5763   -2.2864 H   0  0  0  0  0  0  0  0  0  0  0  0
    2.6966   -1.4598   -2.4659 H   0  0  0  0  0  0  0  0  0  0  0  0
    4.7811   -2.1255   -3.5816 H   0  0  0  0  0  0  0  0  0  0  0  0
    3.7720   -3.5390   -3.2889 H   0  0  0  0  0  0  0  0  0  0  0  0
    5.2077   -3.9761   -1.1802 H   0  0  0  0  0  0  0  0  0  0  0  0
    6.2810   -2.7083   -1.7423 H   0  0  0  0  0  0  0  0  0  0  0  0
    5.5575   -5.1448   -3.4587 H   0  0  0  0  0  0  0  0  0  0  0  0
    6.7648   -3.9149   -3.8134 H   0  0  0  0  0  0  0  0  0  0  0  0
    8.0459   -4.5997   -1.9377 H   0  0  0  0  0  0  0  0  0  0  0  0
    5.7027   -6.9707   -2.4347 H   0  0  0  0  0  0  0  0  0  0  0  0
    7.7967   -5.2272    0.1475 H   0  0  0  0  0  0  0  0  0  0  0  0
    7.4944   -6.8168    0.4018 H   0  0  0  0  0  0  0  0  0  0  0  0
    5.0028   -1.2398   -0.6069 H   0  0  0  0  0  0  0  0  0  0  0  0
    5.5450    1.2355   -0.4330 H   0  0  0  0  0  0  0  0  0  0  0  0
    5.1799    1.6671    2.0466 H   0  0  0  0  0  0  0  0  0  0  0  0
    3.6443    0.8305    1.9536 H   0  0  0  0  0  0  0  0  0  0  0  0
    4.7361   -1.2953    1.5347 H   0  0  0  0  0  0  0  0  0  0  0  0
    5.3874   -0.5509    2.9718 H   0  0  0  0  0  0  0  0  0  0  0  0
    7.4417    0.1196    1.8363 H   0  0  0  0  0  0  0  0  0  0  0  0
    6.8034   -0.3742    0.2645 H   0  0  0  0  0  0  0  0  0  0  0  0
    6.5450   -2.6406    1.7363 H   0  0  0  0  0  0  0  0  0  0  0  0
    9.0193   -0.8636    0.1787 H   0  0  0  0  0  0  0  0  0  0  0  0
    9.4204   -4.0648    0.8694 H   0  0  0  0  0  0  0  0  0  0  0  0
    8.3124   -4.0371    2.1182 H   0  0  0  0  0  0  0  0  0  0  0  0
    2.9748    2.6461   -0.0545 H   0  0  0  0  0  0  0  0  0  0  0  0
    3.7780    4.9948   -1.4893 H   0  0  0  0  0  0  0  0  0  0  0  0
    4.7740    6.4019    1.0410 H   0  0  0  0  0  0  0  0  0  0  0  0
    5.7602    6.1564   -0.3790 H   0  0  0  0  0  0  0  0  0  0  0  0
    4.1083    7.4218   -1.7764 H   0  0  0  0  0  0  0  0  0  0  0  0
    4.9347    8.3458   -0.5333 H   0  0  0  0  0  0  0  0  0  0  0  0
    2.8762    8.0649    0.9591 H   0  0  0  0  0  0  0  0  0  0  0  0
    2.0259    7.3665   -0.4169 H   0  0  0  0  0  0  0  0  0  0  0  0
    3.1910   10.0776   -0.2257 H   0  0  0  0  0  0  0  0  0  0  0  0
    1.2788    9.1801   -3.4962 H   0  0  0  0  0  0  0  0  0  0  0  0
    2.1888   11.1000   -3.2415 H   0  0  0  0  0  0  0  0  0  0  0  0
    3.0169   11.4467   -1.8184 H   0  0  0  0  0  0  0  0  0  0  0  0
    1.8019    5.0608   -0.4303 H   0  0  0  0  0  0  0  0  0  0  0  0
    0.9336    6.3612    2.0490 H   0  0  0  0  0  0  0  0  0  0  0  0
    1.2176    4.8519    4.0094 H   0  0  0  0  0  0  0  0  0  0  0  0
    0.4040    3.5558    3.1553 H   0  0  0  0  0  0  0  0  0  0  0  0
   -1.6649    5.0556    2.9527 H   0  0  0  0  0  0  0  0  0  0  0  0
   -1.2350    4.5640    4.5805 H   0  0  0  0  0  0  0  0  0  0  0  0
   -1.5190    8.4309    3.8286 H   0  0  0  0  0  0  0  0  0  0  0  0
   -1.9204    7.3182    2.6350 H   0  0  0  0  0  0  0  0  0  0  0  0
   -0.6098    5.8758    0.5690 H   0  0  0  0  0  0  0  0  0  0  0  0
   -1.0618    3.2115   -1.5300 H   0  0  0  0  0  0  0  0  0  0  0  0
   -1.4375    5.6494   -1.4904 H   0  0  0  0  0  0  0  0  0  0  0  0
   -2.8065    4.7182   -2.0570 H   0  0  0  0  0  0  0  0  0  0  0  0
   -2.7001    5.6648    0.8415 H   0  0  0  0  0  0  0  0  0  0  0  0
   -4.0546    4.9886   -0.0165 H   0  0  0  0  0  0  0  0  0  0  0  0
   -4.3185    6.9182   -1.4082 H   0  0  0  0  0  0  0  0  0  0  0  0
   -4.1954    7.4735    0.2551 H   0  0  0  0  0  0  0  0  0  0  0  0
   -2.8933    8.6865   -1.5107 H   0  0  0  0  0  0  0  0  0  0  0  0
   -0.3532    8.2261    1.2684 H   0  0  0  0  0  0  0  0  0  0  0  0
   -0.6488    9.1668   -1.6933 H   0  0  0  0  0  0  0  0  0  0  0  0
    0.0502    9.5170   -0.2787 H   0  0  0  0  0  0  0  0  0  0  0  0
   -2.5843    2.6821    0.8838 H   0  0  0  0  0  0  0  0  0  0  0  0
   -5.0114    1.3476   -0.3149 H   0  0  0  0  0  0  0  0  0  0  0  0
   -3.8796    1.5373    1.8672 H   0  0  0  0  0  0  0  0  0  0  0  0
   -2.8941    0.1479    1.5369 H   0  0  0  0  0  0  0  0  0  0  0  0
   -5.1514   -1.2121    1.4724 H   0  0  0  0  0  0  0  0  0  0  0  0
   -4.5153   -0.6436    3.0026 H   0  0  0  0  0  0  0  0  0  0  0  0
   -6.0308    1.3294    2.9458 H   0  0  0  0  0  0  0  0  0  0  0  0
   -6.8777   -0.2292    2.9882 H   0  0  0  0  0  0  0  0  0  0  0  0
   -6.9724   -0.0083    0.4956 H   0  0  0  0  0  0  0  0  0  0  0  0
   -9.4024    2.5725    2.0199 H   0  0  0  0  0  0  0  0  0  0  0  0
   -9.6532    1.9337   -0.0177 H   0  0  0  0  0  0  0  0  0  0  0  0
   -8.4430    0.9801   -0.7367 H   0  0  0  0  0  0  0  0  0  0  0  0
   -4.3649   -0.1890   -1.9697 H   0  0  0  0  0  0  0  0  0  0  0  0
   -3.0089   -2.3954   -2.6957 H   0  0  0  0  0  0  0  0  0  0  0  0
   -5.3471   -1.8492   -3.0523 H   0  0  0  0  0  0  0  0  0  0  0  0
   -5.1382   -3.5466   -3.3116 H   0  0  0  0  0  0  0  0  0  0  0  0
   -7.0818   -1.0885   -1.6389 H   0  0  0  0  0  0  0  0  0  0  0  0
   -8.9443   -1.5775   -0.1048 H   0  0  0  0  0  0  0  0  0  0  0  0
  -10.1864   -3.1778    1.3347 H   0  0  0  0  0  0  0  0  0  0  0  0
  -10.4708   -5.4594    2.2186 H   0  0  0  0  0  0  0  0  0  0  0  0
   -8.8900   -7.2578    1.5718 H   0  0  0  0  0  0  0  0  0  0  0  0
   -7.0200   -6.7698    0.0434 H   0  0  0  0  0  0  0  0  0  0  0  0
   -5.7801   -5.1714   -1.3765 H   0  0  0  0  0  0  0  0  0  0  0  0
   -2.6617   -3.8157   -0.4653 H   0  0  0  0  0  0  0  0  0  0  0  0
   -1.8699   -6.9459   -1.9647 H   0  0  0  0  0  0  0  0  0  0  0  0
   -4.0653   -7.4147   -1.0670 H   0  0  0  0  0  0  0  0  0  0  0  0
   -4.0075   -6.0744    0.0591 H   0  0  0  0  0  0  0  0  0  0  0  0
   -2.3642   -8.6264    0.2692 H   0  0  0  0  0  0  0  0  0  0  0  0
   -3.7154   -8.1314    1.2907 H   0  0  0  0  0  0  0  0  0  0  0  0
   -2.4609   -6.0932    2.0020 H   0  0  0  0  0  0  0  0  0  0  0  0
   -1.5873   -7.5733    2.4091 H   0  0  0  0  0  0  0  0  0  0  0  0
   -0.0935   -5.8828    1.3906 H   0  0  0  0  0  0  0  0  0  0  0  0
   -0.1727   -7.3629    0.4233 H   0  0  0  0  0  0  0  0  0  0  0  0
  1  2  1  0
  2  3  1  0
  3  4  1  0
  4  5  2  0
  4  6  1  0
  4  7  1  0
  2  8  1  0
  8  9  1  0
  9 10  1  0
 10 11  2  0
 10 12  1  0
 12 13  1  0
 13 14  1  0
 14 15  1  0
 15 16  1  0
 16 17  1  0
 17 18  2  3
 17 19  1  0
 12 20  1  0
 20 21  1  0
 21 22  2  0
 21 23  1  0
 23 24  1  0
 24 25  1  0
 25 26  1  0
 26 27  1  0
 27 28  1  0
 28 29  2  3
 28 30  1  0
 23 31  1  0
 31 32  1  0
 32 33  2  0
 32 34  1  0
 34 35  1  0
 35 36  1  0
 36 37  1  0
 37 38  1  0
 38 39  1  0
 39 40  2  3
 39 41  1  0
 34 42  1  0
 42 43  1  0
 43 44  2  0
 43 45  1  0
 45 46  1  0
 46 47  1  0
 47 48  1  0
 48 49  1  0
 48 50  2  0
 45 51  1  0
 51 52  1  0
 52 53  2  0
 52 54  1  0
 54 55  1  0
 55 56  1  0
 56 57  1  0
 57 58  1  0
 58 59  1  0
 59 60  2  3
 59 61  1  0
 54 62  1  0
 62 63  1  0
 63 64  2  0
 63 65  1  0
 65 66  1  0
 66 67  1  0
 67 68  1  0
 68 69  1  0
 69 70  1  0
 70 71  2  3
 70 72  1  0
 65 73  1  0
 73 74  1  0
 74 75  2  0
 74 76  1  0
 76 77  1  0
 77 78  1  0
 78 79  1  0
 79 80  2  0
 80 81  1  0
 81 82  2  0
 82 83  1  0
 83 84  2  0
 84 85  1  0
 85 86  2  0
 86 87  1  0
 76 88  1  0
 88 89  1  0
 89 90  2  0
 89 91  1  0
 91 92  1  0
 92 93  1  0
 93 94  1  0
 94 95  1  0
 95 96  1  0
 96 97  1  0
 97 98  2  0
 97  8  1  0
 87 78  2  0
 96 91  1  0
 86 81  1  0
  1 99  1  0
  1100  1  0
  1101  1  0
  2102  1  1
  6103  1  0
  7104  1  0
  8105  1  1
  9106  1  0
 12107  1  6
 13108  1  0
 13109  1  0
 14110  1  0
 14111  1  0
 15112  1  0
 15113  1  0
 16114  1  0
 18115  1  0
 19116  1  0
 19117  1  0
 20118  1  0
 23119  1  6
 24120  1  0
 24121  1  0
 25122  1  0
 25123  1  0
 26124  1  0
 26125  1  0
 27126  1  0
 29127  1  0
 30128  1  0
 30129  1  0
 31130  1  0
 34131  1  6
 35132  1  0
 35133  1  0
 36134  1  0
 36135  1  0
 37136  1  0
 37137  1  0
 38138  1  0
 40139  1  0
 41140  1  0
 41141  1  0
 42142  1  0
 45143  1  1
 46144  1  0
 46145  1  0
 47146  1  0
 47147  1  0
 49148  1  0
 49149  1  0
 51150  1  0
 54151  1  6
 55152  1  0
 55153  1  0
 56154  1  0
 56155  1  0
 57156  1  0
 57157  1  0
 58158  1  0
 60159  1  0
 61160  1  0
 61161  1  0
 62162  1  0
 65163  1  1
 66164  1  0
 66165  1  0
 67166  1  0
 67167  1  0
 68168  1  0
 68169  1  0
 69170  1  0
 71171  1  0
 72172  1  0
 72173  1  0
 73174  1  0
 76175  1  6
 77176  1  0
 77177  1  0
 79178  1  0
 80179  1  0
 82180  1  0
 83181  1  0
 84182  1  0
 85183  1  0
 87184  1  0
 88185  1  0
 91186  1  6
 92187  1  0
 92188  1  0
 93189  1  0
 93190  1  0
 94191  1  0
 94192  1  0
 95193  1  0
 95194  1  0
M  END
$$$$
