
     RDKit          3D

 44 45  0  0  0  0  0  0  0  0999 V2000
    0.0095   -0.9955   -2.4741 O   0  0  0  0  0  0  0  0  0  0  0  0
    0.2445   -0.1631   -1.6004 C   0  0  0  0  0  0  0  0  0  0  0  0
   -0.6637    0.8250   -1.2870 N   0  0  0  0  0  0  0  0  0  0  0  0
   -2.0623    0.8532   -1.7367 C   0  0  1  0  0  0  0  0  0  0  0  0
   -2.2132    0.8602   -3.2733 C   0  0  0  0  0  0  0  0  0  0  0  0
   -2.1386   -0.4366   -3.8526 O   0  0  0  0  0  0  0  0  0  0  0  0
   -2.9055   -0.2595   -1.0789 C   0  0  0  0  0  0  0  0  0  0  0  0
   -2.9466   -0.1339    0.4293 C   0  0  0  0  0  0  0  0  0  0  0  0
   -3.7957    0.7967    1.0434 C   0  0  0  0  0  0  0  0  0  0  0  0
   -3.8066    0.9334    2.4323 C   0  0  0  0  0  0  0  0  0  0  0  0
   -2.9695    0.1440    3.2188 C   0  0  0  0  0  0  0  0  0  0  0  0
   -2.1230   -0.7857    2.6182 C   0  0  0  0  0  0  0  0  0  0  0  0
   -2.1119   -0.9258    1.2301 C   0  0  0  0  0  0  0  0  0  0  0  0
    1.4804   -0.1621   -0.8298 C   0  0  0  0  0  0  0  0  0  0  0  0
    2.5432   -1.0303   -0.9816 C   0  0  0  0  0  0  0  0  0  0  0  0
    3.6180   -0.7852   -0.0650 C   0  0  0  0  0  0  0  0  0  0  0  0
    4.8601   -1.4443    0.0958 C   0  0  0  0  0  0  0  0  0  0  0  0
    5.7638   -1.0211    1.0751 C   0  0  0  0  0  0  0  0  0  0  0  0
    5.4514    0.0504    1.9001 C   0  0  0  0  0  0  0  0  0  0  0  0
    4.2330    0.7197    1.7644 C   0  0  0  0  0  0  0  0  0  0  0  0
    3.3260    0.2897    0.7763 C   0  0  0  0  0  0  0  0  0  0  0  0
    1.7779    0.9549    0.4280 S   0  0  0  0  0  0  0  0  0  0  0  0
   -0.8303   -1.0827    0.6768 O   0  0  0  0  0  0  0  0  0  0  0  0
   -0.6083   -0.0966   -0.6449 P   0  0  0  0  0  0  0  0  0  0  0  0
   -0.6892    1.3462    0.1798 O   0  0  0  0  0  0  0  0  0  0  0  0
    0.9975   -0.1771   -0.5823 O   0  0  0  0  0  0  0  0  0  0  0  0
   -0.4545    1.3590   -0.4509 H   0  0  0  0  0  0  0  0  0  0  0  0
   -2.4246    1.8295   -1.3883 H   0  0  0  0  0  0  0  0  0  0  0  0
   -1.4553    1.4964   -3.7426 H   0  0  0  0  0  0  0  0  0  0  0  0
   -3.1963    1.2641   -3.5376 H   0  0  0  0  0  0  0  0  0  0  0  0
   -1.2887   -0.8290   -3.5509 H   0  0  0  0  0  0  0  0  0  0  0  0
   -3.9351   -0.2208   -1.4579 H   0  0  0  0  0  0  0  0  0  0  0  0
   -2.5222   -1.2519   -1.3471 H   0  0  0  0  0  0  0  0  0  0  0  0
   -4.4569    1.4188    0.4445 H   0  0  0  0  0  0  0  0  0  0  0  0
   -4.4706    1.6546    2.9020 H   0  0  0  0  0  0  0  0  0  0  0  0
   -2.9801    0.2498    4.3004 H   0  0  0  0  0  0  0  0  0  0  0  0
   -1.4727   -1.4048    3.2309 H   0  0  0  0  0  0  0  0  0  0  0  0
   -1.4468   -1.6580    0.7765 H   0  0  0  0  0  0  0  0  0  0  0  0
    2.5503   -1.8183   -1.7266 H   0  0  0  0  0  0  0  0  0  0  0  0
    5.1157   -2.2850   -0.5448 H   0  0  0  0  0  0  0  0  0  0  0  0
    6.7151   -1.5355    1.1886 H   0  0  0  0  0  0  0  0  0  0  0  0
    6.1600    0.3735    2.6594 H   0  0  0  0  0  0  0  0  0  0  0  0
    3.9915    1.5579    2.4118 H   0  0  0  0  0  0  0  0  0  0  0  0
    1.1304    0.0102    0.3707 H   0  0  0  0  0  0  0  0  0  0  0  0
  1  2  2  0
  2  3  1  0
  3  4  1  0
  4  5  1  0
  5  6  1  0
  4  7  1  0
  7  8  1  0
  8  9  2  0
  9 10  1  0
 10 11  2  0
 11 12  1  0
 12 13  2  0
  2 14  1  0
 14 15  2  0
 15 16  1  0
 16 17  2  0
 17 18  1  0
 18 19  2  0
 19 20  1  0
 20 21  2  0
 21 22  1  0
 23 24  2  0
 24 25  2  0
 24 26  1  0
 13  8  1  0
 22 14  1  0
 21 16  1  0
  3 27  1  0
  4 28  1  1
  5 29  1  0
  5 30  1  0
  6 31  1  0
  7 32  1  0
  7 33  1  0
  9 34  1  0
 10 35  1  0
 11 36  1  0
 12 37  1  0
 13 38  1  0
 15 39  1  0
 17 40  1  0
 18 41  1  0
 19 42  1  0
 20 43  1  0
 26 44  1  0
M  END
$$$$
