
     RDKit          3D

 41 44  0  0  0  0  0  0  0  0999 V2000
   -0.7893   -0.0192   -2.9708 O   0  0  0  0  0  0  0  0  0  0  0  0
   -0.9180    0.5865   -1.9084 C   0  0  0  0  0  0  0  0  0  0  0  0
   -0.0579    1.5972   -1.5654 N   0  0  0  0  0  0  0  0  0  0  0  0
    1.0421    2.0694   -2.4119 C   0  0  2  0  0  0  0  0  0  0  0  0
    2.0990    1.0016   -2.7251 C   0  0  0  0  0  0  0  0  0  0  0  0
    2.5575    0.2851   -1.4990 C   0  0  0  0  0  0  0  0  0  0  0  0
    3.3284    0.7665   -0.5468 N   0  0  0  0  0  0  0  0  0  0  0  0
    3.4329   -0.2364    0.3861 C   0  0  0  0  0  0  0  0  0  0  0  0
    4.1309   -0.2584    1.5992 C   0  0  0  0  0  0  0  0  0  0  0  0
    4.0580   -1.4181    2.3696 C   0  0  0  0  0  0  0  0  0  0  0  0
    4.7152   -1.4662    3.5370 F   0  0  0  0  0  0  0  0  0  0  0  0
    3.3208   -2.5297    1.9646 C   0  0  0  0  0  0  0  0  0  0  0  0
    2.6191   -2.5242    0.7547 C   0  0  0  0  0  0  0  0  0  0  0  0
    2.7038   -1.3554   -0.0055 C   0  0  0  0  0  0  0  0  0  0  0  0
    2.1619   -0.9994   -1.2135 N   0  0  0  0  0  0  0  0  0  0  0  0
    1.7155    3.2915   -1.7819 C   0  0  0  0  0  0  0  0  0  0  0  0
    2.6248    3.9460   -2.2676 O   0  0  0  0  0  0  0  0  0  0  0  0
    1.1912    3.6413   -0.5828 O   0  0  0  0  0  0  0  0  0  0  0  0
   -1.9482    0.2602   -0.9341 C   0  0  0  0  0  0  0  0  0  0  0  0
   -2.9401   -0.6900   -1.0751 C   0  0  0  0  0  0  0  0  0  0  0  0
   -3.8035   -0.7896    0.0652 C   0  0  0  0  0  0  0  0  0  0  0  0
   -4.9188   -1.6270    0.3063 C   0  0  0  0  0  0  0  0  0  0  0  0
   -5.6167   -1.5447    1.5150 C   0  0  0  0  0  0  0  0  0  0  0  0
   -5.2224   -0.6402    2.4912 C   0  0  0  0  0  0  0  0  0  0  0  0
   -4.1260    0.1991    2.2807 C   0  0  0  0  0  0  0  0  0  0  0  0
   -3.4264    0.1127    1.0613 C   0  0  0  0  0  0  0  0  0  0  0  0
   -2.0573    1.0382    0.5824 S   0  0  0  0  0  0  0  0  0  0  0  0
   -0.1552    2.0503   -0.6600 H   0  0  0  0  0  0  0  0  0  0  0  0
    0.5851    2.4146   -3.3474 H   0  0  0  0  0  0  0  0  0  0  0  0
    1.6954    0.2763   -3.4415 H   0  0  0  0  0  0  0  0  0  0  0  0
    2.9700    1.4553   -3.2137 H   0  0  0  0  0  0  0  0  0  0  0  0
    4.7073    0.5962    1.9289 H   0  0  0  0  0  0  0  0  0  0  0  0
    3.2974   -3.4079    2.6043 H   0  0  0  0  0  0  0  0  0  0  0  0
    2.0430   -3.3840    0.4307 H   0  0  0  0  0  0  0  0  0  0  0  0
    1.5529   -1.5680   -1.7864 H   0  0  0  0  0  0  0  0  0  0  0  0
    1.7734    4.3741   -0.2874 H   0  0  0  0  0  0  0  0  0  0  0  0
   -3.0456   -1.2953   -1.9685 H   0  0  0  0  0  0  0  0  0  0  0  0
   -5.2375   -2.3391   -0.4509 H   0  0  0  0  0  0  0  0  0  0  0  0
   -6.4722   -2.1930    1.6888 H   0  0  0  0  0  0  0  0  0  0  0  0
   -5.7705   -0.5823    3.4289 H   0  0  0  0  0  0  0  0  0  0  0  0
   -3.8200    0.9060    3.0467 H   0  0  0  0  0  0  0  0  0  0  0  0
  1  2  2  0
  2  3  1  0
  3  4  1  0
  4  5  1  0
  5  6  1  0
  6  7  2  0
  7  8  1  0
  8  9  2  0
  9 10  1  0
 10 11  1  0
 10 12  2  0
 12 13  1  0
 13 14  2  0
 14 15  1  0
  4 16  1  0
 16 17  2  0
 16 18  1  0
  2 19  1  0
 19 20  2  0
 20 21  1  0
 21 22  2  0
 22 23  1  0
 23 24  2  0
 24 25  1  0
 25 26  2  0
 26 27  1  0
 15  6  1  0
 27 19  1  0
 14  8  1  0
 26 21  1  0
  3 28  1  0
  4 29  1  6
  5 30  1  0
  5 31  1  0
  9 32  1  0
 12 33  1  0
 13 34  1  0
 15 35  1  0
 18 36  1  0
 20 37  1  0
 22 38  1  0
 23 39  1  0
 24 40  1  0
 25 41  1  0
M  END
$$$$
