
     RDKit          3D

 50 52  0  0  0  0  0  0  0  0999 V2000
   -2.8367   -0.1360    4.0176 C   0  0  0  0  0  0  0  0  0  0  0  0
   -2.8855   -0.8968    2.7253 C   0  0  0  0  0  0  0  0  0  0  0  0
   -2.7459   -2.2885    2.7185 C   0  0  0  0  0  0  0  0  0  0  0  0
   -2.7597   -2.9919    1.5142 C   0  0  0  0  0  0  0  0  0  0  0  0
   -2.9009   -2.3099    0.3058 C   0  0  0  0  0  0  0  0  0  0  0  0
   -3.0198   -0.9137    0.2889 C   0  0  0  0  0  0  0  0  0  0  0  0
   -3.1579   -0.1747   -1.0236 C   0  0  0  0  0  0  0  0  0  0  0  0
   -2.0162    0.8269   -1.3051 C   0  0  2  0  0  0  0  0  0  0  0  0
   -2.2639    1.4978   -2.6763 C   0  0  0  0  0  0  0  0  0  0  0  0
   -1.3139    2.5103   -2.9753 O   0  0  0  0  0  0  0  0  0  0  0  0
   -1.4488    3.9007   -2.1931 P   0  0  0  0  0  0  0  0  0  0  0  0
   -2.4596    3.9894   -1.1029 O   0  0  0  0  0  0  0  0  0  0  0  0
    0.0515    4.2333   -1.7675 O   0  0  0  0  0  0  0  0  0  0  0  0
   -1.6321    4.9403   -3.3919 O   0  0  0  0  0  0  0  0  0  0  0  0
   -0.7052    0.1630   -1.2709 N   0  0  0  0  0  0  0  0  0  0  0  0
    0.4421    0.8253   -0.8889 C   0  0  0  0  0  0  0  0  0  0  0  0
    0.4806    2.0225   -0.6164 O   0  0  0  0  0  0  0  0  0  0  0  0
    1.6716   -0.0048   -0.7766 C   0  0  0  0  0  0  0  0  0  0  0  0
    1.8843   -1.1195   -1.5931 C   0  0  0  0  0  0  0  0  0  0  0  0
    3.0545   -1.8709   -1.4554 C   0  0  0  0  0  0  0  0  0  0  0  0
    4.0286   -1.5172   -0.5077 C   0  0  0  0  0  0  0  0  0  0  0  0
    5.2075   -2.2644   -0.3564 C   0  0  0  0  0  0  0  0  0  0  0  0
    6.1684   -1.8978    0.5875 C   0  0  0  0  0  0  0  0  0  0  0  0
    5.9644   -0.7796    1.3902 C   0  0  0  0  0  0  0  0  0  0  0  0
    4.7988   -0.0248    1.2517 C   0  0  0  0  0  0  0  0  0  0  0  0
    3.8214   -0.3810    0.3088 C   0  0  0  0  0  0  0  0  0  0  0  0
    2.6433    0.3679    0.1604 C   0  0  0  0  0  0  0  0  0  0  0  0
   -3.0140   -0.2165    1.5065 C   0  0  0  0  0  0  0  0  0  0  0  0
   -1.7998    0.1102    4.2660 H   0  0  0  0  0  0  0  0  0  0  0  0
   -3.2672   -0.7262    4.8337 H   0  0  0  0  0  0  0  0  0  0  0  0
   -3.4140    0.7920    3.9485 H   0  0  0  0  0  0  0  0  0  0  0  0
   -2.6285   -2.8335    3.6526 H   0  0  0  0  0  0  0  0  0  0  0  0
   -2.6630   -4.0745    1.5203 H   0  0  0  0  0  0  0  0  0  0  0  0
   -2.9166   -2.8802   -0.6199 H   0  0  0  0  0  0  0  0  0  0  0  0
   -3.2101   -0.9025   -1.8443 H   0  0  0  0  0  0  0  0  0  0  0  0
   -4.1219    0.3505   -1.0182 H   0  0  0  0  0  0  0  0  0  0  0  0
   -2.0006    1.5904   -0.5212 H   0  0  0  0  0  0  0  0  0  0  0  0
   -2.1930    0.7500   -3.4737 H   0  0  0  0  0  0  0  0  0  0  0  0
   -3.2702    1.9291   -2.7255 H   0  0  0  0  0  0  0  0  0  0  0  0
    0.3503    3.5426   -1.1236 H   0  0  0  0  0  0  0  0  0  0  0  0
   -0.7987    5.0042   -3.8901 H   0  0  0  0  0  0  0  0  0  0  0  0
   -0.6986   -0.8491   -1.2456 H   0  0  0  0  0  0  0  0  0  0  0  0
    1.1666   -1.4017   -2.3578 H   0  0  0  0  0  0  0  0  0  0  0  0
    3.2063   -2.7336   -2.1013 H   0  0  0  0  0  0  0  0  0  0  0  0
    5.3882   -3.1399   -0.9751 H   0  0  0  0  0  0  0  0  0  0  0  0
    7.0769   -2.4849    0.6946 H   0  0  0  0  0  0  0  0  0  0  0  0
    6.7129   -0.4922    2.1243 H   0  0  0  0  0  0  0  0  0  0  0  0
    4.6587    0.8468    1.8880 H   0  0  0  0  0  0  0  0  0  0  0  0
    2.4741    1.2447    0.7836 H   0  0  0  0  0  0  0  0  0  0  0  0
   -3.1089    0.8686    1.5103 H   0  0  0  0  0  0  0  0  0  0  0  0
  1  2  1  0
  2  3  1  0
  3  4  2  0
  4  5  1  0
  5  6  2  0
  6  7  1  0
  7  8  1  0
  8  9  1  0
  9 10  1  0
 10 11  1  0
 11 12  2  0
 11 13  1  0
 11 14  1  0
  8 15  1  0
 15 16  1  0
 16 17  2  0
 16 18  1  0
 18 19  1  0
 19 20  2  0
 20 21  1  0
 21 22  2  0
 22 23  1  0
 23 24  2  0
 24 25  1  0
 25 26  2  0
 26 27  1  0
  6 28  1  0
 28  2  2  0
 27 18  2  0
 26 21  1  0
  1 29  1  0
  1 30  1  0
  1 31  1  0
  3 32  1  0
  4 33  1  0
  5 34  1  0
  7 35  1  0
  7 36  1  0
  8 37  1  1
  9 38  1  0
  9 39  1  0
 13 40  1  0
 14 41  1  0
 15 42  1  0
 19 43  1  0
 20 44  1  0
 22 45  1  0
 23 46  1  0
 24 47  1  0
 25 48  1  0
 27 49  1  0
 28 50  1  0
M  END
$$$$
