
     RDKit          3D

338348  0  0  0  0  0  0  0  0999 V2000
    7.9270   -1.9010   -1.1401 C   0  0  0  0  0  0  0  0  0  0  0  0
    7.8168   -3.1147   -0.2148 C   0  0  2  0  0  0  0  0  0  0  0  0
    9.0231   -3.9296   -0.3101 N   0  0  0  0  0  0  0  0  0  0  0  0
   10.2167   -3.5155    0.2197 C   0  0  0  0  0  0  0  0  0  0  0  0
   10.3179   -2.5744    1.0130 O   0  0  0  0  0  0  0  0  0  0  0  0
   11.4571   -4.2778   -0.2894 C   0  0  2  0  0  0  0  0  0  0  0  0
   11.8543   -5.3380    0.7344 C   0  0  0  0  0  0  0  0  0  0  0  0
   13.1757   -6.0547    0.4546 C   0  0  0  0  0  0  0  0  0  0  0  0
   13.2618   -6.6783   -0.9398 C   0  0  0  0  0  0  0  0  0  0  0  0
   14.4810   -7.4594   -1.0737 N   0  0  0  0  0  0  0  0  0  0  0  0
   14.5695   -8.7209   -0.5816 C   0  0  0  0  0  0  0  0  0  0  0  0
   13.5932   -9.4090   -0.1235 N   0  0  0  0  0  0  0  0  0  0  0  0
   15.8362   -9.1770   -0.6661 N   0  0  0  0  0  0  0  0  0  0  0  0
   12.4627   -3.2378   -0.4718 N   0  0  0  0  0  0  0  0  0  0  0  0
   12.2682   -2.3619   -1.5319 C   0  0  0  0  0  0  0  0  0  0  0  0
   11.7748   -2.7274   -2.5981 O   0  0  0  0  0  0  0  0  0  0  0  0
   12.7607   -0.9217   -1.3127 C   0  0  2  0  0  0  0  0  0  0  0  0
   14.2357   -0.7576   -1.7083 C   0  0  0  0  0  0  0  0  0  0  0  0
   15.2226   -1.6652   -1.0132 C   0  0  0  0  0  0  0  0  0  0  0  0
   15.7253   -1.3481    0.2509 C   0  0  0  0  0  0  0  0  0  0  0  0
   16.6589   -2.1828    0.8703 C   0  0  0  0  0  0  0  0  0  0  0  0
   17.1084   -3.3521    0.2352 C   0  0  0  0  0  0  0  0  0  0  0  0
   18.0579   -4.1927    0.8359 C   0  0  0  0  0  0  0  0  0  0  0  0
   18.5077   -5.3434    0.1803 C   0  0  0  0  0  0  0  0  0  0  0  0
   18.0057   -5.6735   -1.0751 C   0  0  0  0  0  0  0  0  0  0  0  0
   17.0564   -4.8474   -1.6814 C   0  0  0  0  0  0  0  0  0  0  0  0
   16.6005   -3.6840   -1.0400 C   0  0  0  0  0  0  0  0  0  0  0  0
   15.6602   -2.8375   -1.6443 C   0  0  0  0  0  0  0  0  0  0  0  0
   12.4235   -0.4352    0.0307 N   0  0  0  0  0  0  0  0  0  0  0  0
   12.3544    0.9166    0.3082 C   0  0  0  0  0  0  0  0  0  0  0  0
   12.7178    1.7642   -0.5135 O   0  0  0  0  0  0  0  0  0  0  0  0
   11.8501    1.2738    1.7395 C   0  0  1  0  0  0  0  0  0  0  0  0
   12.9973    0.8893    2.6913 C   0  0  0  0  0  0  0  0  0  0  0  0
   12.8089    1.4301    4.0998 C   0  0  0  0  0  0  0  0  0  0  0  0
   12.6186    2.9340    4.0414 C   0  0  0  0  0  0  0  0  0  0  0  0
   11.4212    3.2828    3.1716 C   0  0  0  0  0  0  0  0  0  0  0  0
   11.4965    2.7101    1.8259 N   0  0  0  0  0  0  0  0  0  0  0  0
   10.4973    3.1304    0.9233 C   0  0  0  0  0  0  0  0  0  0  0  0
    9.8223    2.3193    0.2794 O   0  0  0  0  0  0  0  0  0  0  0  0
   10.3739    4.6587    0.6765 C   0  0  1  0  0  0  0  0  0  0  0  0
   11.5562    5.1410   -0.2040 C   0  0  2  0  0  0  0  0  0  0  0  0
   12.9093    5.1647    0.5036 C   0  0  0  0  0  0  0  0  0  0  0  0
   11.3016    6.4933   -0.6284 O   0  0  0  0  0  0  0  0  0  0  0  0
    9.1021    4.9012   -0.0297 N   0  0  0  0  0  0  0  0  0  0  0  0
    7.9280    5.1658    0.6318 C   0  0  0  0  0  0  0  0  0  0  0  0
    7.8558    5.2770    1.8537 O   0  0  0  0  0  0  0  0  0  0  0  0
    6.6995    5.3505   -0.2860 C   0  0  2  0  0  0  0  0  0  0  0  0
    6.8202    6.6517   -1.1030 C   0  0  0  0  0  0  0  0  0  0  0  0
    7.6471    6.5438   -2.3642 C   0  0  0  0  0  0  0  0  0  0  0  0
    8.8152    7.3073   -2.5109 C   0  0  0  0  0  0  0  0  0  0  0  0
    9.5653    7.2317   -3.6842 C   0  0  0  0  0  0  0  0  0  0  0  0
    9.1420    6.4050   -4.7190 C   0  0  0  0  0  0  0  0  0  0  0  0
    9.8621    6.3365   -5.8447 F   0  0  0  0  0  0  0  0  0  0  0  0
    7.9826    5.6476   -4.5939 C   0  0  0  0  0  0  0  0  0  0  0  0
    7.2289    5.7201   -3.4229 C   0  0  0  0  0  0  0  0  0  0  0  0
    5.4992    5.3982    0.5588 N   0  0  0  0  0  0  0  0  0  0  0  0
    4.2428    5.1927    0.0449 C   0  0  0  0  0  0  0  0  0  0  0  0
    4.0538    4.8646   -1.1287 O   0  0  0  0  0  0  0  0  0  0  0  0
    3.0656    5.4423    1.0146 C   0  0  1  0  0  0  0  0  0  0  0  0
    2.7969    6.9530    1.1574 C   0  0  0  0  0  0  0  0  0  0  0  0
    3.7978    7.6690    2.0346 C   0  0  0  0  0  0  0  0  0  0  0  0
    4.7212    8.5689    1.4809 C   0  0  0  0  0  0  0  0  0  0  0  0
    5.6670    9.2033    2.2889 C   0  0  0  0  0  0  0  0  0  0  0  0
    5.6942    8.9519    3.6592 C   0  0  0  0  0  0  0  0  0  0  0  0
    4.7686    8.0744    4.2091 C   0  0  0  0  0  0  0  0  0  0  0  0
    4.7901    7.8367    5.5274 F   0  0  0  0  0  0  0  0  0  0  0  0
    3.8244    7.4315    3.4165 C   0  0  0  0  0  0  0  0  0  0  0  0
    1.9054    4.7484    0.4448 N   0  0  0  0  0  0  0  0  0  0  0  0
    0.7431    4.5665    1.1448 C   0  0  0  0  0  0  0  0  0  0  0  0
    0.5452    4.9406    2.2884 O   0  0  0  0  0  0  0  0  0  0  0  0
   -0.3148    3.8645    0.3961 C   0  0  0  0  0  0  0  0  0  0  0  0
   -1.3995    4.5895   -0.0963 C   0  0  0  0  0  0  0  0  0  0  0  0
   -2.4025    3.9326   -0.8205 C   0  0  0  0  0  0  0  0  0  0  0  0
   -2.3076    2.5516   -1.0337 C   0  0  0  0  0  0  0  0  0  0  0  0
   -1.2121    1.8364   -0.5327 C   0  0  0  0  0  0  0  0  0  0  0  0
   -0.2079    2.4887    0.1890 C   0  0  0  0  0  0  0  0  0  0  0  0
   -1.1496    0.3756   -0.7985 C   0  0  0  0  0  0  0  0  0  0  0  0
   -2.1651   -0.3040   -0.8462 O   0  0  0  0  0  0  0  0  0  0  0  0
    0.1046   -0.1243   -1.0481 N   0  0  0  0  0  0  0  0  0  0  0  0
    0.3406   -1.5325   -1.3065 C   0  0  0  0  0  0  0  0  0  0  0  0
    0.6999   -2.3082   -0.0287 C   0  0  2  0  0  0  0  0  0  0  0  0
    1.7568   -3.2896   -0.3066 N   0  0  0  0  0  0  0  0  0  0  0  0
    3.0618   -2.8687   -0.4116 C   0  0  0  0  0  0  0  0  0  0  0  0
    3.3833   -1.6861   -0.2696 O   0  0  0  0  0  0  0  0  0  0  0  0
    4.0954   -3.9446   -0.7788 C   0  0  1  0  0  0  0  0  0  0  0  0
    3.9041   -4.3696   -2.2304 C   0  0  0  0  0  0  0  0  0  0  0  0
    5.3937   -3.3205   -0.5378 N   0  0  0  0  0  0  0  0  0  0  0  0
    6.5917   -3.9814   -0.5861 C   0  0  0  0  0  0  0  0  0  0  0  0
    6.6879   -5.1698   -0.8918 O   0  0  0  0  0  0  0  0  0  0  0  0
   -0.4212   -3.0269    0.7449 C   0  0  0  0  0  0  0  0  0  0  0  0
   -0.2127   -3.4224    1.9003 O   0  0  0  0  0  0  0  0  0  0  0  0
   -1.5852   -3.3389    0.0953 N   0  0  0  0  0  0  0  0  0  0  0  0
   -2.6280   -4.1227    0.7601 C   0  0  1  0  0  0  0  0  0  0  0  0
   -3.5269   -3.2373    1.6448 C   0  0  0  0  0  0  0  0  0  0  0  0
   -4.1150   -3.9879    2.8215 C   0  0  0  0  0  0  0  0  0  0  0  0
   -3.2793   -4.5020    3.8247 C   0  0  0  0  0  0  0  0  0  0  0  0
   -3.8168   -5.2306    4.8876 C   0  0  0  0  0  0  0  0  0  0  0  0
   -5.1902   -5.4523    4.9608 C   0  0  0  0  0  0  0  0  0  0  0  0
   -6.0291   -4.9248    3.9826 C   0  0  0  0  0  0  0  0  0  0  0  0
   -5.4953   -4.1903    2.9245 C   0  0  0  0  0  0  0  0  0  0  0  0
   -3.4263   -4.8959   -0.3129 C   0  0  0  0  0  0  0  0  0  0  0  0
   -3.2928   -4.6912   -1.5165 O   0  0  0  0  0  0  0  0  0  0  0  0
   -4.2639   -5.8669    0.1883 N   0  0  0  0  0  0  0  0  0  0  0  0
   -4.8590   -6.9024   -0.6758 C   0  0  1  0  0  0  0  0  0  0  0  0
   -5.1954   -8.1282    0.1973 C   0  0  0  0  0  0  0  0  0  0  0  0
   -5.6040   -9.3718   -0.5575 C   0  0  0  0  0  0  0  0  0  0  0  0
   -4.6885  -10.0496   -1.3643 C   0  0  0  0  0  0  0  0  0  0  0  0
   -5.0715  -11.2051   -2.0527 C   0  0  0  0  0  0  0  0  0  0  0  0
   -6.3806  -11.7015   -1.9463 C   0  0  0  0  0  0  0  0  0  0  0  0
   -6.7829  -12.8571   -2.6377 C   0  0  0  0  0  0  0  0  0  0  0  0
   -8.0870  -13.3378   -2.5198 C   0  0  0  0  0  0  0  0  0  0  0  0
   -9.0037  -12.6718   -1.7101 C   0  0  0  0  0  0  0  0  0  0  0  0
   -8.6175  -11.5264   -1.0167 C   0  0  0  0  0  0  0  0  0  0  0  0
   -7.3121  -11.0281   -1.1290 C   0  0  0  0  0  0  0  0  0  0  0  0
   -6.9073   -9.8732   -0.4380 C   0  0  0  0  0  0  0  0  0  0  0  0
   -6.1423   -6.3991   -1.3739 C   0  0  0  0  0  0  0  0  0  0  0  0
   -6.5412   -6.8515   -2.4470 O   0  0  0  0  0  0  0  0  0  0  0  0
   -6.9160   -5.5549   -0.6062 N   0  0  0  0  0  0  0  0  0  0  0  0
   -8.2858   -5.1959   -0.9911 C   0  0  1  0  0  0  0  0  0  0  0  0
   -9.2012   -6.4012   -0.7064 C   0  0  0  0  0  0  0  0  0  0  0  0
  -10.4557   -6.4799   -1.5862 C   0  0  0  0  0  0  0  0  0  0  0  0
  -11.1817   -7.8245   -1.4497 C   0  0  0  0  0  0  0  0  0  0  0  0
  -11.4631   -8.1152   -0.0588 N   0  0  0  0  0  0  0  0  0  0  0  0
  -11.9913   -9.2733    0.3883 C   0  0  0  0  0  0  0  0  0  0  0  0
  -12.2011  -10.3566   -0.2586 N   0  0  0  0  0  0  0  0  0  0  0  0
  -12.2253   -9.2298    1.7143 N   0  0  0  0  0  0  0  0  0  0  0  0
   -8.6635   -3.9442   -0.1506 C   0  0  0  0  0  0  0  0  0  0  0  0
   -7.8267   -3.3400    0.5183 O   0  0  0  0  0  0  0  0  0  0  0  0
   -9.9880   -3.5609   -0.2270 N   0  0  0  0  0  0  0  0  0  0  0  0
  -10.4991   -2.3165    0.3652 C   0  0  1  0  0  0  0  0  0  0  0  0
  -10.0894   -2.0527    1.8259 C   0  0  0  0  0  0  0  0  0  0  0  0
  -10.4141   -3.2078    2.7878 C   0  0  0  0  0  0  0  0  0  0  0  0
  -11.9149   -3.3397    3.0654 C   0  0  0  0  0  0  0  0  0  0  0  0
  -12.2801   -4.6973    3.4374 N   0  0  0  0  0  0  0  0  0  0  0  0
  -12.4911   -5.6776    2.5287 C   0  0  0  0  0  0  0  0  0  0  0  0
  -12.0764   -5.7415    1.3151 N   0  0  0  0  0  0  0  0  0  0  0  0
  -13.2288   -6.6765    3.0423 N   0  0  0  0  0  0  0  0  0  0  0  0
  -10.2239   -1.1456   -0.6075 C   0  0  0  0  0  0  0  0  0  0  0  0
   -9.7327   -1.3207   -1.7232 O   0  0  0  0  0  0  0  0  0  0  0  0
  -10.6944    0.0843   -0.1965 N   0  0  0  0  0  0  0  0  0  0  0  0
  -10.8298    1.1941   -1.1564 C   0  0  1  0  0  0  0  0  0  0  0  0
  -12.1534    1.0362   -1.9276 C   0  0  0  0  0  0  0  0  0  0  0  0
  -12.1878    1.7141   -3.3028 C   0  0  0  0  0  0  0  0  0  0  0  0
  -12.2888    3.2385   -3.2700 C   0  0  0  0  0  0  0  0  0  0  0  0
  -11.0221    3.8589   -2.9322 N   0  0  0  0  0  0  0  0  0  0  0  0
  -10.0140    4.0874   -3.8055 C   0  0  0  0  0  0  0  0  0  0  0  0
   -9.8140    3.5619   -4.9532 N   0  0  0  0  0  0  0  0  0  0  0  0
   -9.1008    4.9446   -3.3379 N   0  0  0  0  0  0  0  0  0  0  0  0
  -10.7713    2.4685   -0.2918 C   0  0  0  0  0  0  0  0  0  0  0  0
  -11.7759    3.0658    0.0946 O   0  0  0  0  0  0  0  0  0  0  0  0
   -9.4997    2.8167    0.1060 N   0  0  0  0  0  0  0  0  0  0  0  0
   -9.2326    3.9383    1.0210 C   0  0  1  0  0  0  0  0  0  0  0  0
   -9.3561    3.4863    2.4881 C   0  0  0  0  0  0  0  0  0  0  0  0
   -9.8679    4.5728    3.4479 C   0  0  0  0  0  0  0  0  0  0  0  0
   -8.9353    5.7713    3.6184 C   0  0  0  0  0  0  0  0  0  0  0  0
   -9.4287    6.6563    4.6698 N   0  0  0  0  0  0  0  0  0  0  0  0
  -10.4463    7.5203    4.4617 C   0  0  0  0  0  0  0  0  0  0  0  0
  -10.9434    7.8042    3.3101 N   0  0  0  0  0  0  0  0  0  0  0  0
  -10.8684    8.0729    5.6175 N   0  0  0  0  0  0  0  0  0  0  0  0
   -7.8377    4.5152    0.6907 C   0  0  0  0  0  0  0  0  0  0  0  0
   -7.0306    4.8680    1.5456 O   0  0  0  0  0  0  0  0  0  0  0  0
   -7.6054    4.6780   -0.6554 N   0  0  0  0  0  0  0  0  0  0  0  0
   -6.5469    5.5541   -1.1607 C   0  0  2  0  0  0  0  0  0  0  0  0
   -7.1640    6.8801   -1.6643 C   0  0  0  0  0  0  0  0  0  0  0  0
   -8.3774    7.0522   -1.7923 O   0  0  0  0  0  0  0  0  0  0  0  0
   -6.2443    7.8522   -1.9857 N   0  0  0  0  0  0  0  0  0  0  0  0
   -6.6251    9.1664   -2.5070 C   0  0  1  0  0  0  0  0  0  0  0  0
   -7.1121   10.1052   -1.3893 C   0  0  0  0  0  0  0  0  0  0  0  0
   -6.1822   10.2728   -0.1696 C   0  0  0  0  0  0  0  0  0  0  0  0
   -4.8294   10.9519   -0.4029 C   0  0  0  0  0  0  0  0  0  0  0  0
   -4.8599   12.4792   -0.5261 C   0  0  0  0  0  0  0  0  0  0  0  0
   -5.6387   12.9604   -1.6531 N   0  0  0  0  0  0  0  0  0  0  0  0
   -5.5223    9.7895   -3.3692 C   0  0  0  0  0  0  0  0  0  0  0  0
   -5.5229   10.9031   -3.8732 O   0  0  0  0  0  0  0  0  0  0  0  0
   -4.4741    8.9567   -3.5776 O   0  0  0  0  0  0  0  0  0  0  0  0
   -5.7732    4.8598   -2.2949 C   0  0  0  0  0  0  0  0  0  0  0  0
   -4.6465    4.0892   -1.7935 N   0  0  0  0  0  0  0  0  0  0  0  0
   -3.5024    4.7519   -1.3965 C   0  0  0  0  0  0  0  0  0  0  0  0
   -3.3766    5.9683   -1.5049 O   0  0  0  0  0  0  0  0  0  0  0  0
    7.9618   -2.2119   -2.1904 H   0  0  0  0  0  0  0  0  0  0  0  0
    7.0744   -1.2246   -1.0289 H   0  0  0  0  0  0  0  0  0  0  0  0
    8.8330   -1.3166   -0.9379 H   0  0  0  0  0  0  0  0  0  0  0  0
    7.7065   -2.7869    0.8264 H   0  0  0  0  0  0  0  0  0  0  0  0
    9.0045   -4.6698   -1.0119 H   0  0  0  0  0  0  0  0  0  0  0  0
   11.2278   -4.7284   -1.2601 H   0  0  0  0  0  0  0  0  0  0  0  0
   11.0532   -6.0841    0.7985 H   0  0  0  0  0  0  0  0  0  0  0  0
   11.9230   -4.8916    1.7339 H   0  0  0  0  0  0  0  0  0  0  0  0
   14.0086   -5.3545    0.5870 H   0  0  0  0  0  0  0  0  0  0  0  0
   13.3128   -6.8306    1.2184 H   0  0  0  0  0  0  0  0  0  0  0  0
   13.2885   -5.8914   -1.6973 H   0  0  0  0  0  0  0  0  0  0  0  0
   12.3813   -7.2915   -1.1541 H   0  0  0  0  0  0  0  0  0  0  0  0
   15.3141   -6.9064   -0.8979 H   0  0  0  0  0  0  0  0  0  0  0  0
   13.9330  -10.3210    0.1900 H   0  0  0  0  0  0  0  0  0  0  0  0
   15.9210  -10.1793   -0.5581 H   0  0  0  0  0  0  0  0  0  0  0  0
   16.2827   -8.8784   -1.5277 H   0  0  0  0  0  0  0  0  0  0  0  0
   12.8739   -2.8491    0.3691 H   0  0  0  0  0  0  0  0  0  0  0  0
   12.1664   -0.2963   -1.9975 H   0  0  0  0  0  0  0  0  0  0  0  0
   14.5637    0.2802   -1.5554 H   0  0  0  0  0  0  0  0  0  0  0  0
   14.3236   -0.9269   -2.7931 H   0  0  0  0  0  0  0  0  0  0  0  0
   15.4176   -0.4351    0.7545 H   0  0  0  0  0  0  0  0  0  0  0  0
   17.0465   -1.9105    1.8487 H   0  0  0  0  0  0  0  0  0  0  0  0
   18.4686   -3.9486    1.8123 H   0  0  0  0  0  0  0  0  0  0  0  0
   19.2499   -5.9798    0.6570 H   0  0  0  0  0  0  0  0  0  0  0  0
   18.3598   -6.5669   -1.5828 H   0  0  0  0  0  0  0  0  0  0  0  0
   16.6806   -5.1182   -2.6680 H   0  0  0  0  0  0  0  0  0  0  0  0
   15.2692   -3.0914   -2.6311 H   0  0  0  0  0  0  0  0  0  0  0  0
   12.0467   -1.0944    0.7240 H   0  0  0  0  0  0  0  0  0  0  0  0
   10.9502    0.6841    1.9637 H   0  0  0  0  0  0  0  0  0  0  0  0
   13.1070   -0.2007    2.7329 H   0  0  0  0  0  0  0  0  0  0  0  0
   13.9469    1.2735    2.2992 H   0  0  0  0  0  0  0  0  0  0  0  0
   13.6828    1.1888    4.7149 H   0  0  0  0  0  0  0  0  0  0  0  0
   11.9439    0.9558    4.5722 H   0  0  0  0  0  0  0  0  0  0  0  0
   13.5187    3.4053    3.6328 H   0  0  0  0  0  0  0  0  0  0  0  0
   12.4737    3.3350    5.0504 H   0  0  0  0  0  0  0  0  0  0  0  0
   11.3447    4.3715    3.1167 H   0  0  0  0  0  0  0  0  0  0  0  0
   10.4946    2.9223    3.6353 H   0  0  0  0  0  0  0  0  0  0  0  0
   10.3333    5.2195    1.6098 H   0  0  0  0  0  0  0  0  0  0  0  0
   11.6201    4.5271   -1.1132 H   0  0  0  0  0  0  0  0  0  0  0  0
   12.8459    5.7352    1.4345 H   0  0  0  0  0  0  0  0  0  0  0  0
   13.2861    4.1627    0.7205 H   0  0  0  0  0  0  0  0  0  0  0  0
   13.6539    5.6737   -0.1186 H   0  0  0  0  0  0  0  0  0  0  0  0
   11.9164    6.6789   -1.3594 H   0  0  0  0  0  0  0  0  0  0  0  0
    9.0532    4.5490   -0.9792 H   0  0  0  0  0  0  0  0  0  0  0  0
    6.6151    4.4698   -0.9315 H   0  0  0  0  0  0  0  0  0  0  0  0
    5.8293    7.0082   -1.4137 H   0  0  0  0  0  0  0  0  0  0  0  0
    7.2253    7.4479   -0.4658 H   0  0  0  0  0  0  0  0  0  0  0  0
    9.1560    7.9549   -1.7023 H   0  0  0  0  0  0  0  0  0  0  0  0
   10.4687    7.8218   -3.8003 H   0  0  0  0  0  0  0  0  0  0  0  0
    7.6666    5.0160   -5.4188 H   0  0  0  0  0  0  0  0  0  0  0  0
    6.3092    5.1406   -3.3425 H   0  0  0  0  0  0  0  0  0  0  0  0
    5.6433    5.6694    1.5296 H   0  0  0  0  0  0  0  0  0  0  0  0
    3.2829    4.9709    1.9792 H   0  0  0  0  0  0  0  0  0  0  0  0
    2.7746    7.4203    0.1641 H   0  0  0  0  0  0  0  0  0  0  0  0
    1.8025    7.1358    1.5824 H   0  0  0  0  0  0  0  0  0  0  0  0
    4.7130    8.7808    0.4135 H   0  0  0  0  0  0  0  0  0  0  0  0
    6.3858    9.8896    1.8506 H   0  0  0  0  0  0  0  0  0  0  0  0
    6.4262    9.4318    4.2993 H   0  0  0  0  0  0  0  0  0  0  0  0
    3.1111    6.7562    3.8849 H   0  0  0  0  0  0  0  0  0  0  0  0
    1.9870    4.4709   -0.5306 H   0  0  0  0  0  0  0  0  0  0  0  0
   -1.4565    5.6640    0.0766 H   0  0  0  0  0  0  0  0  0  0  0  0
   -3.0543    2.0167   -1.6196 H   0  0  0  0  0  0  0  0  0  0  0  0
    0.6308    1.9442    0.6135 H   0  0  0  0  0  0  0  0  0  0  0  0
    0.9066    0.4903   -1.1070 H   0  0  0  0  0  0  0  0  0  0  0  0
   -0.5101   -1.9550   -1.8399 H   0  0  0  0  0  0  0  0  0  0  0  0
    1.1798   -1.5485   -2.0117 H   0  0  0  0  0  0  0  0  0  0  0  0
    1.1092   -1.5927    0.6946 H   0  0  0  0  0  0  0  0  0  0  0  0
    1.5234   -4.2726   -0.3356 H   0  0  0  0  0  0  0  0  0  0  0  0
    3.9972   -4.8016   -0.1024 H   0  0  0  0  0  0  0  0  0  0  0  0
    4.0112   -3.5157   -2.9098 H   0  0  0  0  0  0  0  0  0  0  0  0
    4.6373   -5.1224   -2.5292 H   0  0  0  0  0  0  0  0  0  0  0  0
    2.9087   -4.7960   -2.3914 H   0  0  0  0  0  0  0  0  0  0  0  0
    5.3593   -2.3369   -0.2795 H   0  0  0  0  0  0  0  0  0  0  0  0
   -1.8735   -2.8545   -0.7508 H   0  0  0  0  0  0  0  0  0  0  0  0
   -2.1102   -4.8822    1.3615 H   0  0  0  0  0  0  0  0  0  0  0  0
   -4.3295   -2.7997    1.0412 H   0  0  0  0  0  0  0  0  0  0  0  0
   -2.9623   -2.3892    2.0533 H   0  0  0  0  0  0  0  0  0  0  0  0
   -2.2015   -4.3314    3.7867 H   0  0  0  0  0  0  0  0  0  0  0  0
   -3.1585   -5.6249    5.6583 H   0  0  0  0  0  0  0  0  0  0  0  0
   -5.6033   -6.0194    5.7898 H   0  0  0  0  0  0  0  0  0  0  0  0
   -7.1019   -5.0783    4.0487 H   0  0  0  0  0  0  0  0  0  0  0  0
   -6.1687   -3.7679    2.1860 H   0  0  0  0  0  0  0  0  0  0  0  0
   -4.2631   -6.0355    1.1889 H   0  0  0  0  0  0  0  0  0  0  0  0
   -4.1324   -7.1544   -1.4596 H   0  0  0  0  0  0  0  0  0  0  0  0
   -4.3231   -8.3931    0.8062 H   0  0  0  0  0  0  0  0  0  0  0  0
   -5.9787   -7.8633    0.9249 H   0  0  0  0  0  0  0  0  0  0  0  0
   -3.6664   -9.6930   -1.4670 H   0  0  0  0  0  0  0  0  0  0  0  0
   -4.3384  -11.7138   -2.6736 H   0  0  0  0  0  0  0  0  0  0  0  0
   -6.0845  -13.3901   -3.2741 H   0  0  0  0  0  0  0  0  0  0  0  0
   -8.3913  -14.2291   -3.0588 H   0  0  0  0  0  0  0  0  0  0  0  0
  -10.0214  -13.0433   -1.6087 H   0  0  0  0  0  0  0  0  0  0  0  0
   -9.3457  -11.0232   -0.3845 H   0  0  0  0  0  0  0  0  0  0  0  0
   -7.6302   -9.3537    0.1926 H   0  0  0  0  0  0  0  0  0  0  0  0
   -6.4567   -4.9892    0.0955 H   0  0  0  0  0  0  0  0  0  0  0  0
   -8.2911   -4.9190   -2.0504 H   0  0  0  0  0  0  0  0  0  0  0  0
   -8.6457   -7.3303   -0.8706 H   0  0  0  0  0  0  0  0  0  0  0  0
   -9.4772   -6.4058    0.3528 H   0  0  0  0  0  0  0  0  0  0  0  0
  -11.1542   -5.6797   -1.3279 H   0  0  0  0  0  0  0  0  0  0  0  0
  -10.1850   -6.3397   -2.6399 H   0  0  0  0  0  0  0  0  0  0  0  0
  -10.5535   -8.6166   -1.8833 H   0  0  0  0  0  0  0  0  0  0  0  0
  -12.1178   -7.7905   -2.0230 H   0  0  0  0  0  0  0  0  0  0  0  0
  -11.8017   -7.2936    0.4627 H   0  0  0  0  0  0  0  0  0  0  0  0
  -11.9472  -10.2132   -1.2375 H   0  0  0  0  0  0  0  0  0  0  0  0
  -11.4098   -8.8688    2.1981 H   0  0  0  0  0  0  0  0  0  0  0  0
  -12.4370  -10.1714    2.0322 H   0  0  0  0  0  0  0  0  0  0  0  0
  -10.4063   -3.7638   -1.1290 H   0  0  0  0  0  0  0  0  0  0  0  0
  -11.5893   -2.4409    0.3293 H   0  0  0  0  0  0  0  0  0  0  0  0
   -9.0189   -1.8296    1.8872 H   0  0  0  0  0  0  0  0  0  0  0  0
  -10.5861   -1.1491    2.1997 H   0  0  0  0  0  0  0  0  0  0  0  0
   -9.9096   -3.0137    3.7400 H   0  0  0  0  0  0  0  0  0  0  0  0
   -9.9808   -4.1414    2.4196 H   0  0  0  0  0  0  0  0  0  0  0  0
  -12.1754   -2.6648    3.8902 H   0  0  0  0  0  0  0  0  0  0  0  0
  -12.5284   -3.0320    2.2139 H   0  0  0  0  0  0  0  0  0  0  0  0
  -13.0200   -4.7026    4.1327 H   0  0  0  0  0  0  0  0  0  0  0  0
  -11.5215   -4.9121    1.1110 H   0  0  0  0  0  0  0  0  0  0  0  0
  -13.2413   -7.4891    2.4050 H   0  0  0  0  0  0  0  0  0  0  0  0
  -12.9498   -6.9701    3.9612 H   0  0  0  0  0  0  0  0  0  0  0  0
  -11.2682    0.1529    0.6357 H   0  0  0  0  0  0  0  0  0  0  0  0
   -9.9765    1.1718   -1.8438 H   0  0  0  0  0  0  0  0  0  0  0  0
  -12.3333   -0.0331   -2.1066 H   0  0  0  0  0  0  0  0  0  0  0  0
  -13.0042    1.3770   -1.3198 H   0  0  0  0  0  0  0  0  0  0  0  0
  -13.0794    1.3388   -3.8226 H   0  0  0  0  0  0  0  0  0  0  0  0
  -11.3253    1.3797   -3.8923 H   0  0  0  0  0  0  0  0  0  0  0  0
  -12.6314    3.6101   -4.2450 H   0  0  0  0  0  0  0  0  0  0  0  0
  -13.0406    3.5448   -2.5348 H   0  0  0  0  0  0  0  0  0  0  0  0
  -11.1090    4.5487   -2.1928 H   0  0  0  0  0  0  0  0  0  0  0  0
  -10.5567    2.9028   -5.1703 H   0  0  0  0  0  0  0  0  0  0  0  0
   -9.4497    5.8073   -2.9155 H   0  0  0  0  0  0  0  0  0  0  0  0
   -8.4807    5.1927   -4.1078 H   0  0  0  0  0  0  0  0  0  0  0  0
   -8.7198    2.2188   -0.1559 H   0  0  0  0  0  0  0  0  0  0  0  0
   -9.9727    4.7192    0.8099 H   0  0  0  0  0  0  0  0  0  0  0  0
  -10.0715    2.6505    2.5554 H   0  0  0  0  0  0  0  0  0  0  0  0
   -8.4023    3.0901    2.8563 H   0  0  0  0  0  0  0  0  0  0  0  0
  -10.0375    4.1089    4.4275 H   0  0  0  0  0  0  0  0  0  0  0  0
  -10.8537    4.9122    3.1039 H   0  0  0  0  0  0  0  0  0  0  0  0
   -8.8426    6.3331    2.6872 H   0  0  0  0  0  0  0  0  0  0  0  0
   -7.9376    5.4303    3.9127 H   0  0  0  0  0  0  0  0  0  0  0  0
   -9.4386    6.2218    5.5845 H   0  0  0  0  0  0  0  0  0  0  0  0
  -11.7096    8.4604    3.4289 H   0  0  0  0  0  0  0  0  0  0  0  0
  -10.1093    8.2493    6.2718 H   0  0  0  0  0  0  0  0  0  0  0  0
  -11.4460    8.8938    5.5141 H   0  0  0  0  0  0  0  0  0  0  0  0
   -8.4052    4.5656   -1.2786 H   0  0  0  0  0  0  0  0  0  0  0  0
   -5.8795    5.8252   -0.3341 H   0  0  0  0  0  0  0  0  0  0  0  0
   -5.2436    7.6560   -1.9165 H   0  0  0  0  0  0  0  0  0  0  0  0
   -7.4655    8.9938   -3.1917 H   0  0  0  0  0  0  0  0  0  0  0  0
   -8.0602    9.7038   -1.0012 H   0  0  0  0  0  0  0  0  0  0  0  0
   -7.3675   11.0806   -1.8126 H   0  0  0  0  0  0  0  0  0  0  0  0
   -6.0039    9.2840    0.2659 H   0  0  0  0  0  0  0  0  0  0  0  0
   -6.7296   10.8354    0.5982 H   0  0  0  0  0  0  0  0  0  0  0  0
   -4.2029   10.7214    0.4675 H   0  0  0  0  0  0  0  0  0  0  0  0
   -4.3084   10.5100   -1.2552 H   0  0  0  0  0  0  0  0  0  0  0  0
   -5.2666   12.9143    0.3894 H   0  0  0  0  0  0  0  0  0  0  0  0
   -3.8291   12.8411   -0.6243 H   0  0  0  0  0  0  0  0  0  0  0  0
   -5.3714   12.4825   -2.5168 H   0  0  0  0  0  0  0  0  0  0  0  0
   -5.4539   13.9511   -1.8043 H   0  0  0  0  0  0  0  0  0  0  0  0
   -3.8709    9.4662   -4.1500 H   0  0  0  0  0  0  0  0  0  0  0  0
   -6.4114    4.1575   -2.8404 H   0  0  0  0  0  0  0  0  0  0  0  0
   -5.3823    5.5790   -3.0269 H   0  0  0  0  0  0  0  0  0  0  0  0
   -4.8479    3.1699   -1.4104 H   0  0  0  0  0  0  0  0  0  0  0  0
  1  2  1  0
  2  3  1  0
  3  4  1  0
  4  5  2  0
  4  6  1  0
  6  7  1  0
  7  8  1  0
  8  9  1  0
  9 10  1  0
 10 11  1  0
 11 12  2  3
 11 13  1  0
  6 14  1  0
 14 15  1  0
 15 16  2  0
 15 17  1  0
 17 18  1  0
 18 19  1  0
 19 20  1  0
 20 21  2  0
 21 22  1  0
 22 23  2  0
 23 24  1  0
 24 25  2  0
 25 26  1  0
 26 27  2  0
 27 28  1  0
 17 29  1  0
 29 30  1  0
 30 31  2  0
 30 32  1  0
 32 33  1  0
 33 34  1  0
 34 35  1  0
 35 36  1  0
 36 37  1  0
 37 38  1  0
 38 39  2  0
 38 40  1  0
 40 41  1  0
 41 42  1  0
 41 43  1  0
 40 44  1  0
 44 45  1  0
 45 46  2  0
 45 47  1  0
 47 48  1  0
 48 49  1  0
 49 50  1  0
 50 51  2  0
 51 52  1  0
 52 53  1  0
 52 54  2  0
 54 55  1  0
 47 56  1  0
 56 57  1  0
 57 58  2  0
 57 59  1  0
 59 60  1  0
 60 61  1  0
 61 62  2  0
 62 63  1  0
 63 64  2  0
 64 65  1  0
 65 66  1  0
 65 67  2  0
 59 68  1  0
 68 69  1  0
 69 70  2  0
 69 71  1  0
 71 72  1  0
 72 73  2  0
 73 74  1  0
 74 75  2  0
 75 76  1  0
 75 77  1  0
 77 78  2  0
 77 79  1  0
 79 80  1  0
 80 81  1  0
 81 82  1  0
 82 83  1  0
 83 84  2  0
 83 85  1  0
 85 86  1  0
 85 87  1  0
 87 88  1  0
 88 89  2  0
 81 90  1  0
 90 91  2  0
 90 92  1  0
 92 93  1  0
 93 94  1  0
 94 95  1  0
 95 96  2  0
 96 97  1  0
 97 98  2  0
 98 99  1  0
 99100  2  0
 93101  1  0
101102  2  0
101103  1  0
103104  1  0
104105  1  0
105106  1  0
106107  1  0
107108  2  0
108109  1  0
109110  2  0
110111  1  0
111112  2  0
112113  1  0
113114  2  0
114115  1  0
104116  1  0
116117  2  0
116118  1  0
118119  1  0
119120  1  0
120121  1  0
121122  1  0
122123  1  0
123124  1  0
124125  2  3
124126  1  0
119127  1  0
127128  2  0
127129  1  0
129130  1  0
130131  1  0
131132  1  0
132133  1  0
133134  1  0
134135  1  0
135136  2  3
135137  1  0
130138  1  0
138139  2  0
138140  1  0
140141  1  0
141142  1  0
142143  1  0
143144  1  0
144145  1  0
145146  1  0
146147  2  3
146148  1  0
141149  1  0
149150  2  0
149151  1  0
151152  1  0
152153  1  0
153154  1  0
154155  1  0
155156  1  0
156157  1  0
157158  2  3
157159  1  0
152160  1  0
160161  2  0
160162  1  0
162163  1  0
163164  1  0
164165  2  0
164166  1  0
166167  1  0
167168  1  0
168169  1  0
169170  1  0
170171  1  0
171172  1  0
167173  1  0
173174  2  0
173175  1  0
163176  1  0
176177  1  0
177178  1  0
178179  2  0
 88  2  1  0
100 95  1  0
115106  2  0
 28 19  2  0
 37 32  1  0
 55 49  2  0
 67 61  1  0
 76 71  2  0
114109  1  0
 27 22  1  0
178 73  1  0
  1180  1  0
  1181  1  0
  1182  1  0
  2183  1  1
  3184  1  0
  6185  1  6
  7186  1  0
  7187  1  0
  8188  1  0
  8189  1  0
  9190  1  0
  9191  1  0
 10192  1  0
 12193  1  0
 13194  1  0
 13195  1  0
 14196  1  0
 17197  1  6
 18198  1  0
 18199  1  0
 20200  1  0
 21201  1  0
 23202  1  0
 24203  1  0
 25204  1  0
 26205  1  0
 28206  1  0
 29207  1  0
 32208  1  1
 33209  1  0
 33210  1  0
 34211  1  0
 34212  1  0
 35213  1  0
 35214  1  0
 36215  1  0
 36216  1  0
 40217  1  1
 41218  1  6
 42219  1  0
 42220  1  0
 42221  1  0
 43222  1  0
 44223  1  0
 47224  1  6
 48225  1  0
 48226  1  0
 50227  1  0
 51228  1  0
 54229  1  0
 55230  1  0
 56231  1  0
 59232  1  1
 60233  1  0
 60234  1  0
 62235  1  0
 63236  1  0
 64237  1  0
 67238  1  0
 68239  1  0
 72240  1  0
 74241  1  0
 76242  1  0
 79243  1  0
 80244  1  0
 80245  1  0
 81246  1  1
 82247  1  0
 85248  1  1
 86249  1  0
 86250  1  0
 86251  1  0
 87252  1  0
 92253  1  0
 93254  1  1
 94255  1  0
 94256  1  0
 96257  1  0
 97258  1  0
 98259  1  0
 99260  1  0
100261  1  0
103262  1  0
104263  1  6
105264  1  0
105265  1  0
107266  1  0
108267  1  0
110268  1  0
111269  1  0
112270  1  0
113271  1  0
115272  1  0
118273  1  0
119274  1  6
120275  1  0
120276  1  0
121277  1  0
121278  1  0
122279  1  0
122280  1  0
123281  1  0
125282  1  0
126283  1  0
126284  1  0
129285  1  0
130286  1  1
131287  1  0
131288  1  0
132289  1  0
132290  1  0
133291  1  0
133292  1  0
134293  1  0
136294  1  0
137295  1  0
137296  1  0
140297  1  0
141298  1  6
142299  1  0
142300  1  0
143301  1  0
143302  1  0
144303  1  0
144304  1  0
145305  1  0
147306  1  0
148307  1  0
148308  1  0
151309  1  0
152310  1  6
153311  1  0
153312  1  0
154313  1  0
154314  1  0
155315  1  0
155316  1  0
156317  1  0
158318  1  0
159319  1  0
159320  1  0
162321  1  0
163322  1  1
166323  1  0
167324  1  6
168325  1  0
168326  1  0
169327  1  0
169328  1  0
170329  1  0
170330  1  0
171331  1  0
171332  1  0
172333  1  0
172334  1  0
175335  1  0
176336  1  0
176337  1  0
177338  1  0
M  END
$$$$
