
     RDKit          3D

 44 47  0  0  0  0  0  0  0  0999 V2000
    0.3598   -2.1465   -2.4883 O   0  0  0  0  0  0  0  0  0  0  0  0
    0.6876   -1.8541   -1.3454 C   0  0  0  0  0  0  0  0  0  0  0  0
    0.1867   -2.4745   -0.2319 N   0  0  0  0  0  0  0  0  0  0  0  0
   -0.9073   -3.4531   -0.2769 C   0  0  2  0  0  0  0  0  0  0  0  0
   -2.1998   -2.9111   -0.9082 C   0  0  0  0  0  0  0  0  0  0  0  0
   -2.5241   -1.5374   -0.4178 C   0  0  0  0  0  0  0  0  0  0  0  0
   -2.9408   -1.2029    0.7860 N   0  0  0  0  0  0  0  0  0  0  0  0
   -2.9530    0.1709    0.8024 C   0  0  0  0  0  0  0  0  0  0  0  0
   -3.2799    1.0485    1.8446 C   0  0  0  0  0  0  0  0  0  0  0  0
   -3.1592    2.4209    1.6088 C   0  0  0  0  0  0  0  0  0  0  0  0
   -3.5298    3.5291    2.8759 Cl  0  0  0  0  0  0  0  0  0  0  0  0
   -2.7313    2.9149    0.3735 C   0  0  0  0  0  0  0  0  0  0  0  0
   -2.4145    2.0492   -0.6798 C   0  0  0  0  0  0  0  0  0  0  0  0
   -2.5422    0.6848   -0.4227 C   0  0  0  0  0  0  0  0  0  0  0  0
   -2.3125   -0.4235   -1.1959 N   0  0  0  0  0  0  0  0  0  0  0  0
   -1.2115   -3.9759    1.1289 C   0  0  0  0  0  0  0  0  0  0  0  0
   -2.0361   -4.8285    1.4200 O   0  0  0  0  0  0  0  0  0  0  0  0
   -0.4495   -3.4111    2.0965 O   0  0  0  0  0  0  0  0  0  0  0  0
    1.6315   -0.7379   -1.0964 C   0  0  0  0  0  0  0  0  0  0  0  0
    2.7040   -0.5566   -1.9702 C   0  0  0  0  0  0  0  0  0  0  0  0
    3.5887    0.5061   -1.7732 C   0  0  0  0  0  0  0  0  0  0  0  0
    3.3991    1.4105   -0.7151 C   0  0  0  0  0  0  0  0  0  0  0  0
    4.2761    2.4869   -0.5073 C   0  0  0  0  0  0  0  0  0  0  0  0
    4.0659    3.3866    0.5393 C   0  0  0  0  0  0  0  0  0  0  0  0
    2.9753    3.2243    1.3897 C   0  0  0  0  0  0  0  0  0  0  0  0
    2.0954    2.1571    1.2013 C   0  0  0  0  0  0  0  0  0  0  0  0
    2.2967    1.2398    0.1569 C   0  0  0  0  0  0  0  0  0  0  0  0
    1.4212    0.1613   -0.0423 C   0  0  0  0  0  0  0  0  0  0  0  0
    0.4900   -2.2058    0.7007 H   0  0  0  0  0  0  0  0  0  0  0  0
   -0.5408   -4.3077   -0.8582 H   0  0  0  0  0  0  0  0  0  0  0  0
   -3.0461   -3.5741   -0.6996 H   0  0  0  0  0  0  0  0  0  0  0  0
   -2.0925   -2.8908   -1.9992 H   0  0  0  0  0  0  0  0  0  0  0  0
   -3.6040    0.6598    2.8026 H   0  0  0  0  0  0  0  0  0  0  0  0
   -2.6380    3.9880    0.2213 H   0  0  0  0  0  0  0  0  0  0  0  0
   -2.0796    2.4259   -1.6391 H   0  0  0  0  0  0  0  0  0  0  0  0
   -1.9530   -0.4302   -2.1417 H   0  0  0  0  0  0  0  0  0  0  0  0
   -0.8141   -3.7998    2.9199 H   0  0  0  0  0  0  0  0  0  0  0  0
    2.8550   -1.2415   -2.8014 H   0  0  0  0  0  0  0  0  0  0  0  0
    4.4262    0.6271   -2.4573 H   0  0  0  0  0  0  0  0  0  0  0  0
    5.1320    2.6340   -1.1618 H   0  0  0  0  0  0  0  0  0  0  0  0
    4.7528    4.2160    0.6883 H   0  0  0  0  0  0  0  0  0  0  0  0
    2.8090    3.9274    2.2024 H   0  0  0  0  0  0  0  0  0  0  0  0
    1.2479    2.0480    1.8790 H   0  0  0  0  0  0  0  0  0  0  0  0
    0.5584    0.0462    0.6103 H   0  0  0  0  0  0  0  0  0  0  0  0
  1  2  2  0
  2  3  1  0
  3  4  1  0
  4  5  1  0
  5  6  1  0
  6  7  2  0
  7  8  1  0
  8  9  2  0
  9 10  1  0
 10 11  1  0
 10 12  2  0
 12 13  1  0
 13 14  2  0
 14 15  1  0
  4 16  1  0
 16 17  2  0
 16 18  1  0
  2 19  1  0
 19 20  1  0
 20 21  2  0
 21 22  1  0
 22 23  2  0
 23 24  1  0
 24 25  2  0
 25 26  1  0
 26 27  2  0
 27 28  1  0
 15  6  1  0
 28 19  2  0
 14  8  1  0
 27 22  1  0
  3 29  1  0
  4 30  1  6
  5 31  1  0
  5 32  1  0
  9 33  1  0
 12 34  1  0
 13 35  1  0
 15 36  1  0
 18 37  1  0
 20 38  1  0
 21 39  1  0
 23 40  1  0
 24 41  1  0
 25 42  1  0
 26 43  1  0
 28 44  1  0
M  END
$$$$
