
     RDKit          3D

338348  0  0  0  0  0  0  0  0999 V2000
    7.3960   -0.1595   -2.0722 C   0  0  0  0  0  0  0  0  0  0  0  0
    7.2860    1.3494   -1.9301 C   0  0  2  0  0  0  0  0  0  0  0  0
    8.1737    1.8477   -0.8647 N   0  0  0  0  0  0  0  0  0  0  0  0
    8.4650    3.1987   -0.7894 C   0  0  0  0  0  0  0  0  0  0  0  0
    7.9106    4.0279   -1.5069 O   0  0  0  0  0  0  0  0  0  0  0  0
    9.4921    3.5934    0.3000 C   0  0  2  0  0  0  0  0  0  0  0  0
    9.6085    5.1288    0.3972 C   0  0  0  0  0  0  0  0  0  0  0  0
   10.4739    5.6262    1.5642 C   0  0  0  0  0  0  0  0  0  0  0  0
   11.9501    5.7979    1.2147 C   0  0  0  0  0  0  0  0  0  0  0  0
   12.1836    7.0324    0.4770 N   0  0  0  0  0  0  0  0  0  0  0  0
   13.4322    7.3791    0.0995 C   0  0  0  0  0  0  0  0  0  0  0  0
   14.5047    6.7381    0.3914 N   0  0  0  0  0  0  0  0  0  0  0  0
   13.4316    8.5075   -0.6352 N   0  0  0  0  0  0  0  0  0  0  0  0
   10.7726    2.9654   -0.0101 N   0  0  0  0  0  0  0  0  0  0  0  0
   11.2545    1.8680    0.6727 C   0  0  0  0  0  0  0  0  0  0  0  0
   10.6481    1.3700    1.6203 O   0  0  0  0  0  0  0  0  0  0  0  0
   12.6024    1.3177    0.1577 C   0  0  2  0  0  0  0  0  0  0  0  0
   13.7807    2.2485    0.4896 C   0  0  0  0  0  0  0  0  0  0  0  0
   14.0898    2.4579    1.9589 C   0  0  0  0  0  0  0  0  0  0  0  0
   13.9446    1.4493    2.9170 C   0  0  0  0  0  0  0  0  0  0  0  0
   14.3029    1.6737    4.2511 C   0  0  0  0  0  0  0  0  0  0  0  0
   14.8237    2.9104    4.6605 C   0  0  0  0  0  0  0  0  0  0  0  0
   15.1924    3.1503    5.9959 C   0  0  0  0  0  0  0  0  0  0  0  0
   15.7075    4.3913    6.3811 C   0  0  0  0  0  0  0  0  0  0  0  0
   15.8622    5.4027    5.4379 C   0  0  0  0  0  0  0  0  0  0  0  0
   15.5045    5.1747    4.1078 C   0  0  0  0  0  0  0  0  0  0  0  0
   14.9868    3.9325    3.7062 C   0  0  0  0  0  0  0  0  0  0  0  0
   14.6315    3.6869    2.3684 C   0  0  0  0  0  0  0  0  0  0  0  0
   12.4005    1.1079   -1.2858 N   0  0  0  0  0  0  0  0  0  0  0  0
   13.3233    0.3759   -2.0206 C   0  0  0  0  0  0  0  0  0  0  0  0
   14.4548    0.1256   -1.6135 O   0  0  0  0  0  0  0  0  0  0  0  0
   12.7066   -0.2443   -3.2997 C   0  0  1  0  0  0  0  0  0  0  0  0
   13.6598   -0.0973   -4.4900 C   0  0  0  0  0  0  0  0  0  0  0  0
   14.8240   -1.0858   -4.4633 C   0  0  0  0  0  0  0  0  0  0  0  0
   14.4101   -2.5006   -4.0527 C   0  0  0  0  0  0  0  0  0  0  0  0
   12.9025   -2.6580   -3.9025 C   0  0  0  0  0  0  0  0  0  0  0  0
   12.3584   -1.6480   -2.9947 N   0  0  0  0  0  0  0  0  0  0  0  0
   11.3833   -1.8954   -2.0414 C   0  0  0  0  0  0  0  0  0  0  0  0
   10.7360   -0.9567   -1.5448 O   0  0  0  0  0  0  0  0  0  0  0  0
   11.1424   -3.3309   -1.5201 C   0  0  1  0  0  0  0  0  0  0  0  0
   12.3002   -3.8787   -0.6468 C   0  0  2  0  0  0  0  0  0  0  0  0
   12.8324   -2.8841    0.3824 C   0  0  0  0  0  0  0  0  0  0  0  0
   13.3852   -4.3620   -1.4355 O   0  0  0  0  0  0  0  0  0  0  0  0
    9.9146   -3.2653   -0.7054 N   0  0  0  0  0  0  0  0  0  0  0  0
    8.9447   -4.2346   -0.7183 C   0  0  0  0  0  0  0  0  0  0  0  0
    9.0280   -5.2577   -1.3965 O   0  0  0  0  0  0  0  0  0  0  0  0
    7.7452   -3.9371    0.1921 C   0  0  2  0  0  0  0  0  0  0  0  0
    8.1052   -4.0647    1.6845 C   0  0  0  0  0  0  0  0  0  0  0  0
    8.4350   -5.4647    2.1585 C   0  0  0  0  0  0  0  0  0  0  0  0
    7.4242   -6.3082    2.6389 C   0  0  0  0  0  0  0  0  0  0  0  0
    7.7238   -7.6002    3.0773 C   0  0  0  0  0  0  0  0  0  0  0  0
    9.0411   -8.0530    3.0458 C   0  0  0  0  0  0  0  0  0  0  0  0
    9.4151   -9.6353    3.6058 Cl  0  0  0  0  0  0  0  0  0  0  0  0
   10.0570   -7.2275    2.5744 C   0  0  0  0  0  0  0  0  0  0  0  0
    9.7560   -5.9356    2.1360 C   0  0  0  0  0  0  0  0  0  0  0  0
    6.6186   -4.7634   -0.2218 N   0  0  0  0  0  0  0  0  0  0  0  0
    5.3234   -4.4185    0.0855 C   0  0  0  0  0  0  0  0  0  0  0  0
    5.0566   -3.4816    0.8417 O   0  0  0  0  0  0  0  0  0  0  0  0
    4.2476   -5.3213   -0.5313 C   0  0  1  0  0  0  0  0  0  0  0  0
    4.1969   -6.6393    0.2622 C   0  0  0  0  0  0  0  0  0  0  0  0
    3.2153   -7.6547   -0.2729 C   0  0  0  0  0  0  0  0  0  0  0  0
    3.4705   -8.3204   -1.4799 C   0  0  0  0  0  0  0  0  0  0  0  0
    2.5547   -9.2410   -1.9891 C   0  0  0  0  0  0  0  0  0  0  0  0
    1.3780   -9.5131   -1.2946 C   0  0  0  0  0  0  0  0  0  0  0  0
    1.1135   -8.8581   -0.0934 C   0  0  0  0  0  0  0  0  0  0  0  0
    2.0280   -7.9356    0.4169 C   0  0  0  0  0  0  0  0  0  0  0  0
    2.9859   -4.5908   -0.4656 N   0  0  0  0  0  0  0  0  0  0  0  0
    2.0460   -4.6762   -1.4618 C   0  0  0  0  0  0  0  0  0  0  0  0
    2.2195   -5.2382   -2.5315 O   0  0  0  0  0  0  0  0  0  0  0  0
    0.7288   -4.1028   -1.1227 C   0  0  0  0  0  0  0  0  0  0  0  0
   -0.3877   -4.9261   -1.2858 C   0  0  0  0  0  0  0  0  0  0  0  0
   -1.6378   -4.4702   -0.8722 C   0  0  0  0  0  0  0  0  0  0  0  0
   -1.7744   -3.1772   -0.3553 C   0  0  0  0  0  0  0  0  0  0  0  0
   -0.6581   -2.3274   -0.2361 C   0  0  0  0  0  0  0  0  0  0  0  0
    0.6087   -2.8065   -0.5992 C   0  0  0  0  0  0  0  0  0  0  0  0
   -0.9101   -0.9473    0.2766 C   0  0  0  0  0  0  0  0  0  0  0  0
   -1.9836   -0.6945    0.8159 O   0  0  0  0  0  0  0  0  0  0  0  0
    0.0584    0.0122    0.0916 N   0  0  0  0  0  0  0  0  0  0  0  0
   -0.1684    1.4005    0.4840 C   0  0  0  0  0  0  0  0  0  0  0  0
    0.4817    2.3810   -0.5028 C   0  0  2  0  0  0  0  0  0  0  0  0
    1.8939    2.6281   -0.1872 N   0  0  0  0  0  0  0  0  0  0  0  0
    2.9138    1.7040   -0.2605 C   0  0  0  0  0  0  0  0  0  0  0  0
    2.7201    0.5216   -0.5383 O   0  0  0  0  0  0  0  0  0  0  0  0
    4.2782    2.3040    0.1756 C   0  0  1  0  0  0  0  0  0  0  0  0
    4.3064    2.3797    1.7049 C   0  0  0  0  0  0  0  0  0  0  0  0
    5.4632    1.6055   -0.2992 N   0  0  0  0  0  0  0  0  0  0  0  0
    5.8188    1.7348   -1.6320 C   0  0  0  0  0  0  0  0  0  0  0  0
    5.0110    2.0333   -2.5090 O   0  0  0  0  0  0  0  0  0  0  0  0
   -0.1885    3.7774   -0.4813 C   0  0  0  0  0  0  0  0  0  0  0  0
    0.4811    4.7914   -0.2673 O   0  0  0  0  0  0  0  0  0  0  0  0
   -1.5277    3.8383   -0.7855 N   0  0  0  0  0  0  0  0  0  0  0  0
   -2.2594    5.1127   -0.7652 C   0  0  1  0  0  0  0  0  0  0  0  0
   -2.6581    5.5128   -2.1936 C   0  0  0  0  0  0  0  0  0  0  0  0
   -3.0839    6.9551   -2.3185 C   0  0  0  0  0  0  0  0  0  0  0  0
   -4.4414    7.2975   -2.3561 C   0  0  0  0  0  0  0  0  0  0  0  0
   -4.8286    8.6383   -2.4088 C   0  0  0  0  0  0  0  0  0  0  0  0
   -3.8646    9.6414   -2.4466 C   0  0  0  0  0  0  0  0  0  0  0  0
   -2.5124    9.3125   -2.4255 C   0  0  0  0  0  0  0  0  0  0  0  0
   -2.1212    7.9735   -2.3565 C   0  0  0  0  0  0  0  0  0  0  0  0
   -3.4938    4.9193    0.1427 C   0  0  0  0  0  0  0  0  0  0  0  0
   -3.9880    3.8098    0.3440 O   0  0  0  0  0  0  0  0  0  0  0  0
   -4.0194    6.0720    0.6770 N   0  0  0  0  0  0  0  0  0  0  0  0
   -5.1893    6.0848    1.5680 C   0  0  1  0  0  0  0  0  0  0  0  0
   -5.1384    7.2512    2.5745 C   0  0  0  0  0  0  0  0  0  0  0  0
   -4.8891    8.6244    1.9840 C   0  0  0  0  0  0  0  0  0  0  0  0
   -3.5880    9.1283    1.8790 C   0  0  0  0  0  0  0  0  0  0  0  0
   -3.3585   10.3938    1.3325 C   0  0  0  0  0  0  0  0  0  0  0  0
   -4.4223   11.1821    0.8732 C   0  0  0  0  0  0  0  0  0  0  0  0
   -4.2145   12.4546    0.3159 C   0  0  0  0  0  0  0  0  0  0  0  0
   -5.2878   13.2217   -0.1394 C   0  0  0  0  0  0  0  0  0  0  0  0
   -6.5858   12.7286   -0.0408 C   0  0  0  0  0  0  0  0  0  0  0  0
   -6.8096   11.4669    0.5123 C   0  0  0  0  0  0  0  0  0  0  0  0
   -5.7408   10.6843    0.9750 C   0  0  0  0  0  0  0  0  0  0  0  0
   -5.9550    9.4134    1.5313 C   0  0  0  0  0  0  0  0  0  0  0  0
   -6.5325    6.0139    0.7923 C   0  0  0  0  0  0  0  0  0  0  0  0
   -7.5140    6.7025    1.0567 O   0  0  0  0  0  0  0  0  0  0  0  0
   -6.5834    4.9875   -0.1349 N   0  0  0  0  0  0  0  0  0  0  0  0
   -7.8665    4.5690   -0.7047 C   0  0  1  0  0  0  0  0  0  0  0  0
   -7.6136    3.8026   -2.0186 C   0  0  0  0  0  0  0  0  0  0  0  0
   -8.1560    4.5253   -3.2646 C   0  0  0  0  0  0  0  0  0  0  0  0
   -9.5648    4.0844   -3.6741 C   0  0  0  0  0  0  0  0  0  0  0  0
  -10.5514    4.3496   -2.6410 N   0  0  0  0  0  0  0  0  0  0  0  0
  -11.1251    5.5600   -2.4344 C   0  0  0  0  0  0  0  0  0  0  0  0
  -10.8323    6.6947   -2.9392 N   0  0  0  0  0  0  0  0  0  0  0  0
  -12.1028    5.4867   -1.5099 N   0  0  0  0  0  0  0  0  0  0  0  0
   -8.5897    3.6681    0.3331 C   0  0  0  0  0  0  0  0  0  0  0  0
   -8.0184    3.1596    1.2971 O   0  0  0  0  0  0  0  0  0  0  0  0
   -9.9290    3.4497    0.0558 N   0  0  0  0  0  0  0  0  0  0  0  0
  -10.6062    2.3007    0.6527 C   0  0  1  0  0  0  0  0  0  0  0  0
  -12.1014    2.5602    0.8655 C   0  0  0  0  0  0  0  0  0  0  0  0
  -12.3693    3.6064    1.9548 C   0  0  0  0  0  0  0  0  0  0  0  0
  -13.8706    3.8681    2.1115 C   0  0  0  0  0  0  0  0  0  0  0  0
  -14.1039    4.9269    3.0834 N   0  0  0  0  0  0  0  0  0  0  0  0
  -14.1213    4.6810    4.4155 C   0  0  0  0  0  0  0  0  0  0  0  0
  -14.1517    3.5221    4.9557 N   0  0  0  0  0  0  0  0  0  0  0  0
  -14.1087    5.8270    5.1264 N   0  0  0  0  0  0  0  0  0  0  0  0
  -10.4354    1.1225   -0.3364 C   0  0  0  0  0  0  0  0  0  0  0  0
  -10.2290    1.3112   -1.5386 O   0  0  0  0  0  0  0  0  0  0  0  0
  -10.6237   -0.1191    0.2295 N   0  0  0  0  0  0  0  0  0  0  0  0
  -10.0812   -1.3746   -0.3111 C   0  0  1  0  0  0  0  0  0  0  0  0
  -10.0247   -1.5172   -1.8367 C   0  0  0  0  0  0  0  0  0  0  0  0
   -9.5745   -2.9040   -2.3327 C   0  0  0  0  0  0  0  0  0  0  0  0
  -10.6849   -3.9356   -2.5591 C   0  0  0  0  0  0  0  0  0  0  0  0
  -11.4997   -4.1957   -1.3882 N   0  0  0  0  0  0  0  0  0  0  0  0
  -11.0341   -4.6258   -0.1985 C   0  0  0  0  0  0  0  0  0  0  0  0
   -9.9017   -5.1618    0.0642 N   0  0  0  0  0  0  0  0  0  0  0  0
  -11.8940   -4.3167    0.7975 N   0  0  0  0  0  0  0  0  0  0  0  0
   -8.6857   -1.5364    0.3275 C   0  0  0  0  0  0  0  0  0  0  0  0
   -7.7856   -0.7120    0.1742 O   0  0  0  0  0  0  0  0  0  0  0  0
   -8.5673   -2.6123    1.1876 N   0  0  0  0  0  0  0  0  0  0  0  0
   -7.3192   -2.8368    1.9193 C   0  0  1  0  0  0  0  0  0  0  0  0
   -7.5740   -3.5355    3.2657 C   0  0  0  0  0  0  0  0  0  0  0  0
   -8.0590   -4.9852    3.1587 C   0  0  0  0  0  0  0  0  0  0  0  0
   -8.6159   -5.5488    4.4703 C   0  0  0  0  0  0  0  0  0  0  0  0
   -9.8070   -4.8483    4.9162 N   0  0  0  0  0  0  0  0  0  0  0  0
  -10.9834   -4.8153    4.2587 C   0  0  0  0  0  0  0  0  0  0  0  0
  -11.3841   -5.5402    3.2791 N   0  0  0  0  0  0  0  0  0  0  0  0
  -11.8017   -3.8640    4.7459 N   0  0  0  0  0  0  0  0  0  0  0  0
   -6.2690   -3.5853    1.0777 C   0  0  0  0  0  0  0  0  0  0  0  0
   -5.0644   -3.5027    1.3179 O   0  0  0  0  0  0  0  0  0  0  0  0
   -6.7728   -4.4830    0.1610 N   0  0  0  0  0  0  0  0  0  0  0  0
   -5.9198   -5.2532   -0.7485 C   0  0  2  0  0  0  0  0  0  0  0  0
   -6.7603   -6.1496   -1.6686 C   0  0  0  0  0  0  0  0  0  0  0  0
   -7.9799   -6.2761   -1.5328 O   0  0  0  0  0  0  0  0  0  0  0  0
   -6.0487   -6.8104   -2.6530 N   0  0  0  0  0  0  0  0  0  0  0  0
   -6.5706   -8.0524   -3.2352 C   0  0  1  0  0  0  0  0  0  0  0  0
   -6.6759   -9.1573   -2.1649 C   0  0  0  0  0  0  0  0  0  0  0  0
   -6.4731  -10.5566   -2.7578 C   0  0  0  0  0  0  0  0  0  0  0  0
   -6.5318  -11.6807   -1.7167 C   0  0  0  0  0  0  0  0  0  0  0  0
   -7.8578  -11.8228   -0.9735 C   0  0  0  0  0  0  0  0  0  0  0  0
   -8.9777  -12.0667   -1.8733 N   0  0  0  0  0  0  0  0  0  0  0  0
   -7.8886   -7.8725   -4.0125 C   0  0  0  0  0  0  0  0  0  0  0  0
   -8.7787   -8.6987   -4.1147 O   0  0  0  0  0  0  0  0  0  0  0  0
   -7.9636   -6.7192   -4.7141 O   0  0  0  0  0  0  0  0  0  0  0  0
   -4.8990   -6.1199    0.0215 C   0  0  0  0  0  0  0  0  0  0  0  0
   -3.6168   -5.4507    0.1238 N   0  0  0  0  0  0  0  0  0  0  0  0
   -2.7919   -5.3916   -0.9778 C   0  0  0  0  0  0  0  0  0  0  0  0
   -2.9867   -6.0564   -1.9911 O   0  0  0  0  0  0  0  0  0  0  0  0
    7.2292   -0.6743   -1.1182 H   0  0  0  0  0  0  0  0  0  0  0  0
    8.3911   -0.4432   -2.4268 H   0  0  0  0  0  0  0  0  0  0  0  0
    6.6610   -0.5428   -2.7892 H   0  0  0  0  0  0  0  0  0  0  0  0
    7.5736    1.8424   -2.8676 H   0  0  0  0  0  0  0  0  0  0  0  0
    8.7847    1.2010   -0.3753 H   0  0  0  0  0  0  0  0  0  0  0  0
    9.1072    3.2064    1.2519 H   0  0  0  0  0  0  0  0  0  0  0  0
    9.9592    5.5485   -0.5548 H   0  0  0  0  0  0  0  0  0  0  0  0
    8.5959    5.5267    0.5531 H   0  0  0  0  0  0  0  0  0  0  0  0
   10.0778    6.5909    1.9029 H   0  0  0  0  0  0  0  0  0  0  0  0
   10.3825    4.9330    2.4075 H   0  0  0  0  0  0  0  0  0  0  0  0
   12.5236    5.8352    2.1456 H   0  0  0  0  0  0  0  0  0  0  0  0
   12.3121    4.9553    0.6244 H   0  0  0  0  0  0  0  0  0  0  0  0
   11.4890    7.2302   -0.2331 H   0  0  0  0  0  0  0  0  0  0  0  0
   15.3085    7.2012   -0.0361 H   0  0  0  0  0  0  0  0  0  0  0  0
   12.7334    9.1729   -0.3235 H   0  0  0  0  0  0  0  0  0  0  0  0
   14.3328    8.9584   -0.7169 H   0  0  0  0  0  0  0  0  0  0  0  0
   11.2459    3.2321   -0.8689 H   0  0  0  0  0  0  0  0  0  0  0  0
   12.7482    0.3240    0.5925 H   0  0  0  0  0  0  0  0  0  0  0  0
   13.6020    3.2214    0.0136 H   0  0  0  0  0  0  0  0  0  0  0  0
   14.7026    1.8665    0.0369 H   0  0  0  0  0  0  0  0  0  0  0  0
   13.5661    0.4664    2.6513 H   0  0  0  0  0  0  0  0  0  0  0  0
   14.1792    0.8668    4.9692 H   0  0  0  0  0  0  0  0  0  0  0  0
   15.0830    2.3720    6.7462 H   0  0  0  0  0  0  0  0  0  0  0  0
   15.9916    4.5636    7.4162 H   0  0  0  0  0  0  0  0  0  0  0  0
   16.2610    6.3687    5.7355 H   0  0  0  0  0  0  0  0  0  0  0  0
   15.6303    5.9756    3.3815 H   0  0  0  0  0  0  0  0  0  0  0  0
   14.7887    4.4718    1.6289 H   0  0  0  0  0  0  0  0  0  0  0  0
   11.4526    0.7970   -1.5011 H   0  0  0  0  0  0  0  0  0  0  0  0
   11.7777    0.2895   -3.5400 H   0  0  0  0  0  0  0  0  0  0  0  0
   13.0900   -0.2640   -5.4120 H   0  0  0  0  0  0  0  0  0  0  0  0
   14.0485    0.9261   -4.5485 H   0  0  0  0  0  0  0  0  0  0  0  0
   15.5990   -0.7294   -3.7734 H   0  0  0  0  0  0  0  0  0  0  0  0
   15.2962   -1.1101   -5.4534 H   0  0  0  0  0  0  0  0  0  0  0  0
   14.8942   -2.7382   -3.0965 H   0  0  0  0  0  0  0  0  0  0  0  0
   14.7883   -3.2254   -4.7829 H   0  0  0  0  0  0  0  0  0  0  0  0
   12.4051   -2.5192   -4.8714 H   0  0  0  0  0  0  0  0  0  0  0  0
   12.6550   -3.6713   -3.5910 H   0  0  0  0  0  0  0  0  0  0  0  0
   10.9489   -3.9909   -2.3714 H   0  0  0  0  0  0  0  0  0  0  0  0
   11.9240   -4.7522   -0.1010 H   0  0  0  0  0  0  0  0  0  0  0  0
   13.4828   -3.4010    1.1002 H   0  0  0  0  0  0  0  0  0  0  0  0
   13.4530   -2.1125   -0.0886 H   0  0  0  0  0  0  0  0  0  0  0  0
   12.0259   -2.4044    0.9470 H   0  0  0  0  0  0  0  0  0  0  0  0
   14.0758   -4.6839   -0.8294 H   0  0  0  0  0  0  0  0  0  0  0  0
    9.7075   -2.3546   -0.3035 H   0  0  0  0  0  0  0  0  0  0  0  0
    7.4531   -2.8966    0.0014 H   0  0  0  0  0  0  0  0  0  0  0  0
    7.2780   -3.6801    2.2971 H   0  0  0  0  0  0  0  0  0  0  0  0
    8.9559   -3.4099    1.9167 H   0  0  0  0  0  0  0  0  0  0  0  0
    6.3937   -5.9597    2.6853 H   0  0  0  0  0  0  0  0  0  0  0  0
    6.9314   -8.2429    3.4486 H   0  0  0  0  0  0  0  0  0  0  0  0
   11.0852   -7.5795    2.5518 H   0  0  0  0  0  0  0  0  0  0  0  0
   10.5637   -5.2991    1.7863 H   0  0  0  0  0  0  0  0  0  0  0  0
    6.8192   -5.5049   -0.8880 H   0  0  0  0  0  0  0  0  0  0  0  0
    4.5021   -5.5051   -1.5809 H   0  0  0  0  0  0  0  0  0  0  0  0
    3.9615   -6.4268    1.3155 H   0  0  0  0  0  0  0  0  0  0  0  0
    5.1894   -7.1092    0.2805 H   0  0  0  0  0  0  0  0  0  0  0  0
    4.3761   -8.1121   -2.0450 H   0  0  0  0  0  0  0  0  0  0  0  0
    2.7571   -9.7419   -2.9329 H   0  0  0  0  0  0  0  0  0  0  0  0
    0.6628  -10.2239   -1.6972 H   0  0  0  0  0  0  0  0  0  0  0  0
    0.1918   -9.0662    0.4448 H   0  0  0  0  0  0  0  0  0  0  0  0
    1.7995   -7.4288    1.3525 H   0  0  0  0  0  0  0  0  0  0  0  0
    2.7882   -4.0948    0.3968 H   0  0  0  0  0  0  0  0  0  0  0  0
   -0.2748   -5.9272   -1.6981 H   0  0  0  0  0  0  0  0  0  0  0  0
   -2.7599   -2.8078   -0.0655 H   0  0  0  0  0  0  0  0  0  0  0  0
    1.4990   -2.1928   -0.4953 H   0  0  0  0  0  0  0  0  0  0  0  0
    0.9915   -0.2075   -0.2572 H   0  0  0  0  0  0  0  0  0  0  0  0
    0.2494    1.5195    1.4899 H   0  0  0  0  0  0  0  0  0  0  0  0
   -1.2459    1.5715    0.5632 H   0  0  0  0  0  0  0  0  0  0  0  0
    0.4298    2.0019   -1.5313 H   0  0  0  0  0  0  0  0  0  0  0  0
    2.1402    3.6122   -0.1089 H   0  0  0  0  0  0  0  0  0  0  0  0
    4.3348    3.3243   -0.2271 H   0  0  0  0  0  0  0  0  0  0  0  0
    5.2028    2.9120    2.0443 H   0  0  0  0  0  0  0  0  0  0  0  0
    3.4299    2.8996    2.1011 H   0  0  0  0  0  0  0  0  0  0  0  0
    4.3252    1.3782    2.1458 H   0  0  0  0  0  0  0  0  0  0  0  0
    6.2591    1.5816    0.3256 H   0  0  0  0  0  0  0  0  0  0  0  0
   -2.0990    2.9975   -0.7728 H   0  0  0  0  0  0  0  0  0  0  0  0
   -1.6271    5.8834   -0.3059 H   0  0  0  0  0  0  0  0  0  0  0  0
   -3.4577    4.8568   -2.5628 H   0  0  0  0  0  0  0  0  0  0  0  0
   -1.8101    5.3522   -2.8740 H   0  0  0  0  0  0  0  0  0  0  0  0
   -5.2118    6.5289   -2.3213 H   0  0  0  0  0  0  0  0  0  0  0  0
   -5.8831    8.8999   -2.4062 H   0  0  0  0  0  0  0  0  0  0  0  0
   -4.1714   10.6827   -2.4830 H   0  0  0  0  0  0  0  0  0  0  0  0
   -1.7608   10.0968   -2.4524 H   0  0  0  0  0  0  0  0  0  0  0  0
   -1.0596    7.7319   -2.3287 H   0  0  0  0  0  0  0  0  0  0  0  0
   -3.7801    6.9558    0.2395 H   0  0  0  0  0  0  0  0  0  0  0  0
   -5.1603    5.1579    2.1552 H   0  0  0  0  0  0  0  0  0  0  0  0
   -4.3355    7.0488    3.2976 H   0  0  0  0  0  0  0  0  0  0  0  0
   -6.0615    7.2823    3.1720 H   0  0  0  0  0  0  0  0  0  0  0  0
   -2.7407    8.5432    2.2278 H   0  0  0  0  0  0  0  0  0  0  0  0
   -2.3362   10.7581    1.2623 H   0  0  0  0  0  0  0  0  0  0  0  0
   -3.2077   12.8576    0.2305 H   0  0  0  0  0  0  0  0  0  0  0  0
   -5.1110   14.2064   -0.5665 H   0  0  0  0  0  0  0  0  0  0  0  0
   -7.4237   13.3240   -0.3927 H   0  0  0  0  0  0  0  0  0  0  0  0
   -7.8315   11.0972    0.5834 H   0  0  0  0  0  0  0  0  0  0  0  0
   -6.9744    9.0394    1.6190 H   0  0  0  0  0  0  0  0  0  0  0  0
   -5.9349    4.2272    0.0726 H   0  0  0  0  0  0  0  0  0  0  0  0
   -8.4850    5.4627   -0.8558 H   0  0  0  0  0  0  0  0  0  0  0  0
   -6.5318    3.6801   -2.1629 H   0  0  0  0  0  0  0  0  0  0  0  0
   -8.0161    2.7845   -1.9762 H   0  0  0  0  0  0  0  0  0  0  0  0
   -8.1056    5.6115   -3.1320 H   0  0  0  0  0  0  0  0  0  0  0  0
   -7.4885    4.2875   -4.1000 H   0  0  0  0  0  0  0  0  0  0  0  0
   -9.8561    4.5768   -4.6109 H   0  0  0  0  0  0  0  0  0  0  0  0
   -9.5583    3.0089   -3.8814 H   0  0  0  0  0  0  0  0  0  0  0  0
  -11.2625    3.6171   -2.6294 H   0  0  0  0  0  0  0  0  0  0  0  0
  -10.0664    6.6001   -3.6067 H   0  0  0  0  0  0  0  0  0  0  0  0
  -11.7331    5.1329   -0.6298 H   0  0  0  0  0  0  0  0  0  0  0  0
  -12.4361    6.4311   -1.3415 H   0  0  0  0  0  0  0  0  0  0  0  0
  -10.1676    3.6331   -0.9175 H   0  0  0  0  0  0  0  0  0  0  0  0
  -10.1259    2.0357    1.6006 H   0  0  0  0  0  0  0  0  0  0  0  0
  -12.5630    2.8857   -0.0752 H   0  0  0  0  0  0  0  0  0  0  0  0
  -12.6041    1.6258    1.1509 H   0  0  0  0  0  0  0  0  0  0  0  0
  -11.8604    4.5465    1.7099 H   0  0  0  0  0  0  0  0  0  0  0  0
  -11.9462    3.2629    2.9058 H   0  0  0  0  0  0  0  0  0  0  0  0
  -14.3998    2.9475    2.3876 H   0  0  0  0  0  0  0  0  0  0  0  0
  -14.2843    4.1949    1.1494 H   0  0  0  0  0  0  0  0  0  0  0  0
  -13.6208    5.7841    2.8501 H   0  0  0  0  0  0  0  0  0  0  0  0
  -14.1322    3.6182    5.9733 H   0  0  0  0  0  0  0  0  0  0  0  0
  -14.6664    6.5514    4.6888 H   0  0  0  0  0  0  0  0  0  0  0  0
  -14.3512    5.7276    6.1044 H   0  0  0  0  0  0  0  0  0  0  0  0
  -10.6817   -0.1216    1.2405 H   0  0  0  0  0  0  0  0  0  0  0  0
  -10.7495   -2.1218    0.1096 H   0  0  0  0  0  0  0  0  0  0  0  0
   -9.2943   -0.8012   -2.2309 H   0  0  0  0  0  0  0  0  0  0  0  0
  -10.9934   -1.2583   -2.2814 H   0  0  0  0  0  0  0  0  0  0  0  0
   -9.0770   -2.7620   -3.3022 H   0  0  0  0  0  0  0  0  0  0  0  0
   -8.8049   -3.3172   -1.6739 H   0  0  0  0  0  0  0  0  0  0  0  0
  -10.2387   -4.8727   -2.9147 H   0  0  0  0  0  0  0  0  0  0  0  0
  -11.3400   -3.5765   -3.3652 H   0  0  0  0  0  0  0  0  0  0  0  0
  -12.2709   -3.5405   -1.2934 H   0  0  0  0  0  0  0  0  0  0  0  0
   -9.4451   -5.4230   -0.8271 H   0  0  0  0  0  0  0  0  0  0  0  0
  -11.6033   -4.7465    1.6889 H   0  0  0  0  0  0  0  0  0  0  0  0
  -12.8352   -4.6454    0.6138 H   0  0  0  0  0  0  0  0  0  0  0  0
   -9.2435   -3.3714    1.1168 H   0  0  0  0  0  0  0  0  0  0  0  0
   -6.8855   -1.8497    2.1316 H   0  0  0  0  0  0  0  0  0  0  0  0
   -8.3027   -2.9337    3.8244 H   0  0  0  0  0  0  0  0  0  0  0  0
   -6.6473   -3.5279    3.8538 H   0  0  0  0  0  0  0  0  0  0  0  0
   -8.8265   -5.0688    2.3877 H   0  0  0  0  0  0  0  0  0  0  0  0
   -7.2245   -5.6207    2.8382 H   0  0  0  0  0  0  0  0  0  0  0  0
   -8.8440   -6.6114    4.3439 H   0  0  0  0  0  0  0  0  0  0  0  0
   -7.8538   -5.4853    5.2544 H   0  0  0  0  0  0  0  0  0  0  0  0
   -9.5998   -3.9709    5.3836 H   0  0  0  0  0  0  0  0  0  0  0  0
  -10.6541   -6.2221    3.0472 H   0  0  0  0  0  0  0  0  0  0  0  0
  -11.8795   -3.8961    5.7543 H   0  0  0  0  0  0  0  0  0  0  0  0
  -12.7217   -3.9657    4.3302 H   0  0  0  0  0  0  0  0  0  0  0  0
   -7.7799   -4.5982    0.0845 H   0  0  0  0  0  0  0  0  0  0  0  0
   -5.4185   -4.5174   -1.3903 H   0  0  0  0  0  0  0  0  0  0  0  0
   -5.0362   -6.6827   -2.6785 H   0  0  0  0  0  0  0  0  0  0  0  0
   -5.8218   -8.3436   -3.9809 H   0  0  0  0  0  0  0  0  0  0  0  0
   -5.9091   -9.0108   -1.3917 H   0  0  0  0  0  0  0  0  0  0  0  0
   -7.6481   -9.0945   -1.6584 H   0  0  0  0  0  0  0  0  0  0  0  0
   -5.4867  -10.5953   -3.2417 H   0  0  0  0  0  0  0  0  0  0  0  0
   -7.2030  -10.7486   -3.5503 H   0  0  0  0  0  0  0  0  0  0  0  0
   -5.7371  -11.5171   -0.9785 H   0  0  0  0  0  0  0  0  0  0  0  0
   -6.2982  -12.6291   -2.2148 H   0  0  0  0  0  0  0  0  0  0  0  0
   -7.7808  -12.6706   -0.2809 H   0  0  0  0  0  0  0  0  0  0  0  0
   -8.0547  -10.9355   -0.3627 H   0  0  0  0  0  0  0  0  0  0  0  0
   -9.8411  -12.1231   -1.3323 H   0  0  0  0  0  0  0  0  0  0  0  0
   -9.1058  -11.2677   -2.5006 H   0  0  0  0  0  0  0  0  0  0  0  0
   -8.8047   -6.8104   -5.2010 H   0  0  0  0  0  0  0  0  0  0  0  0
   -5.2382   -6.3268    1.0421 H   0  0  0  0  0  0  0  0  0  0  0  0
   -4.7221   -7.0893   -0.4539 H   0  0  0  0  0  0  0  0  0  0  0  0
   -3.5806   -4.6992    0.8138 H   0  0  0  0  0  0  0  0  0  0  0  0
  1  2  1  0
  2  3  1  0
  3  4  1  0
  4  5  2  0
  4  6  1  0
  6  7  1  0
  7  8  1  0
  8  9  1  0
  9 10  1  0
 10 11  1  0
 11 12  2  3
 11 13  1  0
  6 14  1  0
 14 15  1  0
 15 16  2  0
 15 17  1  0
 17 18  1  0
 18 19  1  0
 19 20  1  0
 20 21  2  0
 21 22  1  0
 22 23  2  0
 23 24  1  0
 24 25  2  0
 25 26  1  0
 26 27  2  0
 27 28  1  0
 17 29  1  0
 29 30  1  0
 30 31  2  0
 30 32  1  0
 32 33  1  0
 33 34  1  0
 34 35  1  0
 35 36  1  0
 36 37  1  0
 37 38  1  0
 38 39  2  0
 38 40  1  0
 40 41  1  0
 41 42  1  0
 41 43  1  0
 40 44  1  0
 44 45  1  0
 45 46  2  0
 45 47  1  0
 47 48  1  0
 48 49  1  0
 49 50  1  0
 50 51  2  0
 51 52  1  0
 52 53  1  0
 52 54  2  0
 54 55  1  0
 47 56  1  0
 56 57  1  0
 57 58  2  0
 57 59  1  0
 59 60  1  0
 60 61  1  0
 61 62  2  0
 62 63  1  0
 63 64  2  0
 64 65  1  0
 65 66  2  0
 59 67  1  0
 67 68  1  0
 68 69  2  0
 68 70  1  0
 70 71  1  0
 71 72  2  0
 72 73  1  0
 73 74  2  0
 74 75  1  0
 74 76  1  0
 76 77  2  0
 76 78  1  0
 78 79  1  0
 79 80  1  0
 80 81  1  0
 81 82  1  0
 82 83  2  0
 82 84  1  0
 84 85  1  0
 84 86  1  0
 86 87  1  0
 87 88  2  0
 80 89  1  0
 89 90  2  0
 89 91  1  0
 91 92  1  0
 92 93  1  0
 93 94  1  0
 94 95  2  0
 95 96  1  0
 96 97  2  0
 97 98  1  0
 98 99  2  0
 92100  1  0
100101  2  0
100102  1  0
102103  1  0
103104  1  0
104105  1  0
105106  1  0
106107  2  0
107108  1  0
108109  2  0
109110  1  0
110111  2  0
111112  1  0
112113  2  0
113114  1  0
103115  1  0
115116  2  0
115117  1  0
117118  1  0
118119  1  0
119120  1  0
120121  1  0
121122  1  0
122123  1  0
123124  2  3
123125  1  0
118126  1  0
126127  2  0
126128  1  0
128129  1  0
129130  1  0
130131  1  0
131132  1  0
132133  1  0
133134  1  0
134135  2  3
134136  1  0
129137  1  0
137138  2  0
137139  1  0
139140  1  0
140141  1  0
141142  1  0
142143  1  0
143144  1  0
144145  1  0
145146  2  3
145147  1  0
140148  1  0
148149  2  0
148150  1  0
150151  1  0
151152  1  0
152153  1  0
153154  1  0
154155  1  0
155156  1  0
156157  2  3
156158  1  0
151159  1  0
159160  2  0
159161  1  0
161162  1  0
162163  1  0
163164  2  0
163165  1  0
165166  1  0
166167  1  0
167168  1  0
168169  1  0
169170  1  0
170171  1  0
166172  1  0
172173  2  0
172174  1  0
162175  1  0
175176  1  0
176177  1  0
177178  2  0
 87  2  1  0
 99 94  1  0
114105  2  0
 28 19  2  0
 37 32  1  0
 55 49  2  0
 66 61  1  0
 75 70  2  0
113108  1  0
 27 22  1  0
177 72  1  0
  1179  1  0
  1180  1  0
  1181  1  0
  2182  1  6
  3183  1  0
  6184  1  1
  7185  1  0
  7186  1  0
  8187  1  0
  8188  1  0
  9189  1  0
  9190  1  0
 10191  1  0
 12192  1  0
 13193  1  0
 13194  1  0
 14195  1  0
 17196  1  1
 18197  1  0
 18198  1  0
 20199  1  0
 21200  1  0
 23201  1  0
 24202  1  0
 25203  1  0
 26204  1  0
 28205  1  0
 29206  1  0
 32207  1  6
 33208  1  0
 33209  1  0
 34210  1  0
 34211  1  0
 35212  1  0
 35213  1  0
 36214  1  0
 36215  1  0
 40216  1  6
 41217  1  1
 42218  1  0
 42219  1  0
 42220  1  0
 43221  1  0
 44222  1  0
 47223  1  1
 48224  1  0
 48225  1  0
 50226  1  0
 51227  1  0
 54228  1  0
 55229  1  0
 56230  1  0
 59231  1  6
 60232  1  0
 60233  1  0
 62234  1  0
 63235  1  0
 64236  1  0
 65237  1  0
 66238  1  0
 67239  1  0
 71240  1  0
 73241  1  0
 75242  1  0
 78243  1  0
 79244  1  0
 79245  1  0
 80246  1  6
 81247  1  0
 84248  1  6
 85249  1  0
 85250  1  0
 85251  1  0
 86252  1  0
 91253  1  0
 92254  1  1
 93255  1  0
 93256  1  0
 95257  1  0
 96258  1  0
 97259  1  0
 98260  1  0
 99261  1  0
102262  1  0
103263  1  1
104264  1  0
104265  1  0
106266  1  0
107267  1  0
109268  1  0
110269  1  0
111270  1  0
112271  1  0
114272  1  0
117273  1  0
118274  1  6
119275  1  0
119276  1  0
120277  1  0
120278  1  0
121279  1  0
121280  1  0
122281  1  0
124282  1  0
125283  1  0
125284  1  0
128285  1  0
129286  1  1
130287  1  0
130288  1  0
131289  1  0
131290  1  0
132291  1  0
132292  1  0
133293  1  0
135294  1  0
136295  1  0
136296  1  0
139297  1  0
140298  1  1
141299  1  0
141300  1  0
142301  1  0
142302  1  0
143303  1  0
143304  1  0
144305  1  0
146306  1  0
147307  1  0
147308  1  0
150309  1  0
151310  1  1
152311  1  0
152312  1  0
153313  1  0
153314  1  0
154315  1  0
154316  1  0
155317  1  0
157318  1  0
158319  1  0
158320  1  0
161321  1  0
162322  1  6
165323  1  0
166324  1  6
167325  1  0
167326  1  0
168327  1  0
168328  1  0
169329  1  0
169330  1  0
170331  1  0
170332  1  0
171333  1  0
171334  1  0
174335  1  0
175336  1  0
175337  1  0
176338  1  0
M  END
$$$$
