
     RDKit          3D

 44 46  0  0  0  0  0  0  0  0999 V2000
   -0.3061    2.0227   -0.0923 O   0  0  0  0  0  0  0  0  0  0  0  0
    0.2203    0.9119   -0.1948 C   0  0  0  0  0  0  0  0  0  0  0  0
   -0.5150   -0.2002   -0.5516 N   0  0  0  0  0  0  0  0  0  0  0  0
   -1.9245   -0.1315   -0.9483 C   0  0  1  0  0  0  0  0  0  0  0  0
   -2.0595    0.1317   -2.4630 C   0  0  0  0  0  0  0  0  0  0  0  0
   -1.2933    1.2448   -2.8936 O   0  0  0  0  0  0  0  0  0  0  0  0
   -1.8878    2.7291   -2.8330 P   0  0  0  0  0  0  0  0  0  0  0  0
   -1.0218    3.8144   -3.3712 O   0  0  0  0  0  0  0  0  0  0  0  0
   -3.2892    2.6184   -3.5930 O   0  0  0  0  0  0  0  0  0  0  0  0
   -2.3534    2.9369   -1.3255 O   0  0  0  0  0  0  0  0  0  0  0  0
   -2.6731   -1.4312   -0.5832 C   0  0  0  0  0  0  0  0  0  0  0  0
   -2.6357   -1.8122    0.8821 C   0  0  0  0  0  0  0  0  0  0  0  0
   -2.9457   -0.8859    1.8891 C   0  0  0  0  0  0  0  0  0  0  0  0
   -2.9314   -1.2652    3.2327 C   0  0  0  0  0  0  0  0  0  0  0  0
   -2.6161   -2.5763    3.5863 C   0  0  0  0  0  0  0  0  0  0  0  0
   -2.3214   -3.5113    2.5954 C   0  0  0  0  0  0  0  0  0  0  0  0
   -2.3362   -3.1339    1.2513 C   0  0  0  0  0  0  0  0  0  0  0  0
    1.6397    0.6936    0.0372 C   0  0  0  0  0  0  0  0  0  0  0  0
    2.5581    1.6358    0.4576 C   0  0  0  0  0  0  0  0  0  0  0  0
    3.8953    1.1252    0.5571 C   0  0  0  0  0  0  0  0  0  0  0  0
    5.1002    1.7673    0.9269 C   0  0  0  0  0  0  0  0  0  0  0  0
    6.3057    1.0600    0.9289 C   0  0  0  0  0  0  0  0  0  0  0  0
    6.3321   -0.2820    0.5758 C   0  0  0  0  0  0  0  0  0  0  0  0
    5.1572   -0.9451    0.2134 C   0  0  0  0  0  0  0  0  0  0  0  0
    3.9458   -0.2251    0.2069 C   0  0  0  0  0  0  0  0  0  0  0  0
    2.3865   -0.8204   -0.2062 S   0  0  0  0  0  0  0  0  0  0  0  0
   -0.0048   -1.0608   -0.7075 H   0  0  0  0  0  0  0  0  0  0  0  0
   -2.3749    0.7041   -0.4076 H   0  0  0  0  0  0  0  0  0  0  0  0
   -1.6800   -0.7326   -3.0168 H   0  0  0  0  0  0  0  0  0  0  0  0
   -3.1094    0.2557   -2.7449 H   0  0  0  0  0  0  0  0  0  0  0  0
   -3.6055    3.5118   -3.8236 H   0  0  0  0  0  0  0  0  0  0  0  0
   -1.5660    2.9123   -0.7285 H   0  0  0  0  0  0  0  0  0  0  0  0
   -3.7263   -1.3458   -0.8792 H   0  0  0  0  0  0  0  0  0  0  0  0
   -2.2478   -2.2547   -1.1727 H   0  0  0  0  0  0  0  0  0  0  0  0
   -3.2020    0.1424    1.6443 H   0  0  0  0  0  0  0  0  0  0  0  0
   -3.1689   -0.5361    4.0036 H   0  0  0  0  0  0  0  0  0  0  0  0
   -2.6080   -2.8704    4.6340 H   0  0  0  0  0  0  0  0  0  0  0  0
   -2.0816   -4.5356    2.8679 H   0  0  0  0  0  0  0  0  0  0  0  0
   -2.1133   -3.8836    0.4946 H   0  0  0  0  0  0  0  0  0  0  0  0
    2.2842    2.6630    0.6719 H   0  0  0  0  0  0  0  0  0  0  0  0
    5.0922    2.8164    1.2030 H   0  0  0  0  0  0  0  0  0  0  0  0
    7.2264    1.5659    1.2098 H   0  0  0  0  0  0  0  0  0  0  0  0
    7.2747   -0.8246    0.5823 H   0  0  0  0  0  0  0  0  0  0  0  0
    5.1807   -1.9991   -0.0581 H   0  0  0  0  0  0  0  0  0  0  0  0
  1  2  2  0
  2  3  1  0
  3  4  1  0
  4  5  1  0
  5  6  1  0
  6  7  1  0
  7  8  2  0
  7  9  1  0
  7 10  1  0
  4 11  1  0
 11 12  1  0
 12 13  2  0
 13 14  1  0
 14 15  2  0
 15 16  1  0
 16 17  2  0
  2 18  1  0
 18 19  2  0
 19 20  1  0
 20 21  2  0
 21 22  1  0
 22 23  2  0
 23 24  1  0
 24 25  2  0
 25 26  1  0
 17 12  1  0
 26 18  1  0
 25 20  1  0
  3 27  1  0
  4 28  1  1
  5 29  1  0
  5 30  1  0
  9 31  1  0
 10 32  1  0
 11 33  1  0
 11 34  1  0
 13 35  1  0
 14 36  1  0
 15 37  1  0
 16 38  1  0
 17 39  1  0
 19 40  1  0
 21 41  1  0
 22 42  1  0
 23 43  1  0
 24 44  1  0
M  END
$$$$
