
     RDKit          3D

343353  0  0  0  0  0  0  0  0999 V2000
   10.9255    6.2913   -4.1710 C   0  0  0  0  0  0  0  0  0  0  0  0
    9.9797    5.6706   -3.1560 C   0  0  0  0  0  0  0  0  0  0  0  0
   10.4479    4.2830   -2.7158 C   0  0  0  0  0  0  0  0  0  0  0  0
    9.5161    3.6381   -1.6797 C   0  0  0  0  0  0  0  0  0  0  0  0
    9.6096    4.2808   -0.2863 C   0  0  1  0  0  0  0  0  0  0  0  0
    8.2826    4.6677    0.2115 N   0  0  0  0  0  0  0  0  0  0  0  0
    8.1835    5.7128    1.1083 C   0  0  0  0  0  0  0  0  0  0  0  0
    9.0822    6.5428    1.2574 O   0  0  0  0  0  0  0  0  0  0  0  0
    6.8689    5.8118    1.9041 C   0  0  2  0  0  0  0  0  0  0  0  0
    6.6970    4.6690    2.9223 C   0  0  0  0  0  0  0  0  0  0  0  0
    7.5939    4.8096    4.1348 C   0  0  0  0  0  0  0  0  0  0  0  0
    8.6910    3.9514    4.3140 C   0  0  0  0  0  0  0  0  0  0  0  0
    9.5178    4.0816    5.4302 C   0  0  0  0  0  0  0  0  0  0  0  0
    9.2453    5.0668    6.3715 C   0  0  0  0  0  0  0  0  0  0  0  0
   10.0400    5.1925    7.4444 F   0  0  0  0  0  0  0  0  0  0  0  0
    8.1615    5.9221    6.2186 C   0  0  0  0  0  0  0  0  0  0  0  0
    7.3343    5.7940    5.1021 C   0  0  0  0  0  0  0  0  0  0  0  0
    5.7381    5.9895    0.9868 N   0  0  0  0  0  0  0  0  0  0  0  0
    5.0855    4.9816    0.3178 C   0  0  0  0  0  0  0  0  0  0  0  0
    5.3443    3.7867    0.4670 O   0  0  0  0  0  0  0  0  0  0  0  0
    4.0103    5.4741   -0.6664 C   0  0  1  0  0  0  0  0  0  0  0  0
    4.6328    5.6725   -2.0614 C   0  0  0  0  0  0  0  0  0  0  0  0
    5.3044    7.0218   -2.1885 C   0  0  0  0  0  0  0  0  0  0  0  0
    4.5351    8.1663   -2.4412 C   0  0  0  0  0  0  0  0  0  0  0  0
    5.1377    9.4244   -2.4842 C   0  0  0  0  0  0  0  0  0  0  0  0
    6.5044    9.5532   -2.2559 C   0  0  0  0  0  0  0  0  0  0  0  0
    7.2781    8.4203   -2.0141 C   0  0  0  0  0  0  0  0  0  0  0  0
    6.6803    7.1609   -1.9877 C   0  0  0  0  0  0  0  0  0  0  0  0
    2.8884    4.5341   -0.6751 N   0  0  0  0  0  0  0  0  0  0  0  0
    1.6596    4.9708   -1.1276 C   0  0  0  0  0  0  0  0  0  0  0  0
    1.5290    6.0886   -1.6188 O   0  0  0  0  0  0  0  0  0  0  0  0
    0.4699    4.0755   -1.0174 C   0  0  0  0  0  0  0  0  0  0  0  0
   -0.7393    4.5922   -1.5228 C   0  0  0  0  0  0  0  0  0  0  0  0
   -1.9403    3.8788   -1.4351 C   0  0  0  0  0  0  0  0  0  0  0  0
   -1.9295    2.6285   -0.8249 C   0  0  0  0  0  0  0  0  0  0  0  0
   -0.7243    2.0980   -0.3391 C   0  0  0  0  0  0  0  0  0  0  0  0
    0.4811    2.8051   -0.4339 C   0  0  0  0  0  0  0  0  0  0  0  0
   -0.8074    0.7306    0.2128 C   0  0  0  0  0  0  0  0  0  0  0  0
   -1.6373    0.4640    1.0736 O   0  0  0  0  0  0  0  0  0  0  0  0
   -0.0290   -0.1983   -0.4239 N   0  0  0  0  0  0  0  0  0  0  0  0
   -0.4458   -1.5905   -0.5012 C   0  0  0  0  0  0  0  0  0  0  0  0
    0.5254   -2.5602    0.1872 C   0  0  2  0  0  0  0  0  0  0  0  0
    1.7558   -2.8562   -0.5654 N   0  0  0  0  0  0  0  0  0  0  0  0
    2.4376   -2.0382   -1.4343 C   0  0  0  0  0  0  0  0  0  0  0  0
    2.1307   -0.8733   -1.6829 O   0  0  0  0  0  0  0  0  0  0  0  0
    3.6588   -2.7216   -2.0838 C   0  0  1  0  0  0  0  0  0  0  0  0
    4.1226   -1.9582   -3.3187 C   0  0  0  0  0  0  0  0  0  0  0  0
    4.7512   -2.8007   -1.1169 N   0  0  0  0  0  0  0  0  0  0  0  0
    4.8186   -3.8219   -0.1883 C   0  0  0  0  0  0  0  0  0  0  0  0
    3.9280   -4.6703   -0.0646 O   0  0  0  0  0  0  0  0  0  0  0  0
    6.0547   -3.7797    0.7205 C   0  0  2  0  0  0  0  0  0  0  0  0
    5.9130   -2.6900    1.7750 C   0  0  0  0  0  0  0  0  0  0  0  0
    7.2059   -3.5315   -0.1393 N   0  0  0  0  0  0  0  0  0  0  0  0
    8.5007   -3.8103    0.2376 C   0  0  0  0  0  0  0  0  0  0  0  0
    8.7934   -4.3913    1.2802 O   0  0  0  0  0  0  0  0  0  0  0  0
    9.5381   -3.3697   -0.8205 C   0  0  2  0  0  0  0  0  0  0  0  0
    9.7098   -4.5006   -1.8390 C   0  0  0  0  0  0  0  0  0  0  0  0
   10.4924   -4.0510   -3.0751 C   0  0  0  0  0  0  0  0  0  0  0  0
   10.5801   -5.1354   -4.1545 C   0  0  0  0  0  0  0  0  0  0  0  0
   11.1883   -6.3580   -3.6572 N   0  0  0  0  0  0  0  0  0  0  0  0
   12.4470   -6.4184   -3.1732 C   0  0  0  0  0  0  0  0  0  0  0  0
   13.4501   -5.6830   -3.4770 N   0  0  0  0  0  0  0  0  0  0  0  0
   12.5736   -7.3917   -2.2566 N   0  0  0  0  0  0  0  0  0  0  0  0
   10.7815   -3.0005   -0.1688 N   0  0  0  0  0  0  0  0  0  0  0  0
   10.8014   -1.8586    0.6067 C   0  0  0  0  0  0  0  0  0  0  0  0
    9.8253   -1.1113    0.6701 O   0  0  0  0  0  0  0  0  0  0  0  0
   12.0993   -1.5910    1.4060 C   0  0  2  0  0  0  0  0  0  0  0  0
   12.3091   -2.6358    2.5155 C   0  0  0  0  0  0  0  0  0  0  0  0
   12.9138   -3.9420    2.0623 C   0  0  0  0  0  0  0  0  0  0  0  0
   14.2079   -3.9838    1.5343 C   0  0  0  0  0  0  0  0  0  0  0  0
   14.7621   -5.1935    1.1144 C   0  0  0  0  0  0  0  0  0  0  0  0
   14.0403   -6.3921    1.2143 C   0  0  0  0  0  0  0  0  0  0  0  0
   14.5855   -7.6152    0.8011 C   0  0  0  0  0  0  0  0  0  0  0  0
   13.8517   -8.7972    0.9101 C   0  0  0  0  0  0  0  0  0  0  0  0
   12.5594   -8.7665    1.4278 C   0  0  0  0  0  0  0  0  0  0  0  0
   12.0037   -7.5576    1.8416 C   0  0  0  0  0  0  0  0  0  0  0  0
   12.7306   -6.3596    1.7471 C   0  0  0  0  0  0  0  0  0  0  0  0
   12.1863   -5.1378    2.1694 C   0  0  0  0  0  0  0  0  0  0  0  0
   11.9467   -0.2659    2.0251 N   0  0  0  0  0  0  0  0  0  0  0  0
   12.2635    0.8790    1.3109 C   0  0  0  0  0  0  0  0  0  0  0  0
   12.8445    0.8579    0.2324 O   0  0  0  0  0  0  0  0  0  0  0  0
   11.8807    2.1878    2.0538 C   0  0  1  0  0  0  0  0  0  0  0  0
   13.0044    2.6225    3.0052 C   0  0  0  0  0  0  0  0  0  0  0  0
   14.1325    3.3559    2.2879 C   0  0  0  0  0  0  0  0  0  0  0  0
   13.5715    4.5009    1.4549 C   0  0  0  0  0  0  0  0  0  0  0  0
   12.5349    3.9974    0.4614 C   0  0  0  0  0  0  0  0  0  0  0  0
   11.4662    3.2531    1.1274 N   0  0  0  0  0  0  0  0  0  0  0  0
   10.1334    3.2469    0.7386 C   0  0  0  0  0  0  0  0  0  0  0  0
    9.3357    2.4272    1.2151 O   0  0  0  0  0  0  0  0  0  0  0  0
   -0.2084   -3.9134    0.3778 C   0  0  0  0  0  0  0  0  0  0  0  0
    0.1253   -4.9271   -0.2371 O   0  0  0  0  0  0  0  0  0  0  0  0
   -1.2650   -3.9112    1.2672 N   0  0  0  0  0  0  0  0  0  0  0  0
   -2.2752   -4.9822    1.2010 C   0  0  1  0  0  0  0  0  0  0  0  0
   -2.7341   -5.3786    2.6115 C   0  0  0  0  0  0  0  0  0  0  0  0
   -3.2159   -6.8093    2.6811 C   0  0  0  0  0  0  0  0  0  0  0  0
   -2.3102   -7.8685    2.5195 C   0  0  0  0  0  0  0  0  0  0  0  0
   -2.7573   -9.1896    2.5162 C   0  0  0  0  0  0  0  0  0  0  0  0
   -4.1114   -9.4669    2.6788 C   0  0  0  0  0  0  0  0  0  0  0  0
   -5.0177   -8.4243    2.8593 C   0  0  0  0  0  0  0  0  0  0  0  0
   -4.5713   -7.1019    2.8703 C   0  0  0  0  0  0  0  0  0  0  0  0
   -3.4436   -4.4362    0.3413 C   0  0  0  0  0  0  0  0  0  0  0  0
   -3.4577   -3.2795   -0.0855 O   0  0  0  0  0  0  0  0  0  0  0  0
   -4.4658   -5.3078    0.0717 N   0  0  0  0  0  0  0  0  0  0  0  0
   -5.5941   -4.9321   -0.7732 C   0  0  1  0  0  0  0  0  0  0  0  0
   -5.2901   -5.0830   -2.2785 C   0  0  0  0  0  0  0  0  0  0  0  0
   -4.9199   -6.4883   -2.7017 C   0  0  0  0  0  0  0  0  0  0  0  0
   -3.5856   -6.9036   -2.6881 C   0  0  0  0  0  0  0  0  0  0  0  0
   -3.2432   -8.2118   -3.0430 C   0  0  0  0  0  0  0  0  0  0  0  0
   -4.2305   -9.1342   -3.4222 C   0  0  0  0  0  0  0  0  0  0  0  0
   -3.9091  -10.4596   -3.7620 C   0  0  0  0  0  0  0  0  0  0  0  0
   -4.9056  -11.3628   -4.1381 C   0  0  0  0  0  0  0  0  0  0  0  0
   -6.2330  -10.9516   -4.1849 C   0  0  0  0  0  0  0  0  0  0  0  0
   -6.5640   -9.6386   -3.8503 C   0  0  0  0  0  0  0  0  0  0  0  0
   -5.5778   -8.7208   -3.4574 C   0  0  0  0  0  0  0  0  0  0  0  0
   -5.9075   -7.4024   -3.0964 C   0  0  0  0  0  0  0  0  0  0  0  0
   -6.8466   -5.7348   -0.3623 C   0  0  0  0  0  0  0  0  0  0  0  0
   -6.7710   -6.7951    0.2501 O   0  0  0  0  0  0  0  0  0  0  0  0
   -8.0464   -5.1533   -0.7462 N   0  0  0  0  0  0  0  0  0  0  0  0
   -9.2978   -5.9269   -0.8126 C   0  0  1  0  0  0  0  0  0  0  0  0
   -9.7385   -6.5524    0.5253 C   0  0  0  0  0  0  0  0  0  0  0  0
  -11.0334   -7.3904    0.4661 C   0  0  0  0  0  0  0  0  0  0  0  0
  -11.0835   -8.4491   -0.6409 C   0  0  0  0  0  0  0  0  0  0  0  0
   -9.9357   -9.3234   -0.5395 N   0  0  0  0  0  0  0  0  0  0  0  0
   -9.5108  -10.1388   -1.5278 C   0  0  0  0  0  0  0  0  0  0  0  0
   -9.8225  -10.1455   -2.7677 N   0  0  0  0  0  0  0  0  0  0  0  0
   -8.5536  -10.9872   -1.0928 N   0  0  0  0  0  0  0  0  0  0  0  0
  -10.4195   -4.9753   -1.2809 C   0  0  0  0  0  0  0  0  0  0  0  0
  -11.3567   -5.3795   -1.9643 O   0  0  0  0  0  0  0  0  0  0  0  0
  -10.3798   -3.7021   -0.7249 N   0  0  0  0  0  0  0  0  0  0  0  0
  -11.6002   -2.9000   -0.6922 C   0  0  1  0  0  0  0  0  0  0  0  0
  -12.3599   -3.1015    0.6384 C   0  0  0  0  0  0  0  0  0  0  0  0
  -11.5391   -2.8413    1.9093 C   0  0  0  0  0  0  0  0  0  0  0  0
  -12.3836   -3.0092    3.1736 C   0  0  0  0  0  0  0  0  0  0  0  0
  -11.5577   -2.7738    4.3434 N   0  0  0  0  0  0  0  0  0  0  0  0
  -12.0178   -2.8812    5.6099 C   0  0  0  0  0  0  0  0  0  0  0  0
  -13.1052   -3.4051    6.0284 N   0  0  0  0  0  0  0  0  0  0  0  0
  -11.1574   -2.3407    6.4938 N   0  0  0  0  0  0  0  0  0  0  0  0
  -11.4558   -1.3989   -1.0107 C   0  0  0  0  0  0  0  0  0  0  0  0
  -12.2996   -0.8212   -1.7003 O   0  0  0  0  0  0  0  0  0  0  0  0
  -10.4872   -0.6965   -0.3348 N   0  0  0  0  0  0  0  0  0  0  0  0
  -10.5217    0.7691   -0.2963 C   0  0  1  0  0  0  0  0  0  0  0  0
  -11.7823    1.2689    0.4461 C   0  0  0  0  0  0  0  0  0  0  0  0
  -12.5102    2.3503   -0.3631 C   0  0  0  0  0  0  0  0  0  0  0  0
  -13.5830    3.0930    0.4285 C   0  0  0  0  0  0  0  0  0  0  0  0
  -13.1138    3.6074    1.7049 N   0  0  0  0  0  0  0  0  0  0  0  0
  -12.0831    4.4619    1.8601 C   0  0  0  0  0  0  0  0  0  0  0  0
  -11.3754    4.9805    0.9196 N   0  0  0  0  0  0  0  0  0  0  0  0
  -11.8375    4.7079    3.1642 N   0  0  0  0  0  0  0  0  0  0  0  0
   -9.2481    1.3009    0.4072 C   0  0  0  0  0  0  0  0  0  0  0  0
   -8.3932    0.5350    0.8521 O   0  0  0  0  0  0  0  0  0  0  0  0
   -9.1925    2.6726    0.5179 N   0  0  0  0  0  0  0  0  0  0  0  0
   -8.2019    3.4463    1.2555 C   0  0  1  0  0  0  0  0  0  0  0  0
   -7.8289    2.8929    2.6351 C   0  0  0  0  0  0  0  0  0  0  0  0
   -7.1005    3.9091    3.5366 C   0  0  0  0  0  0  0  0  0  0  0  0
   -7.9453    5.1335    3.9046 C   0  0  0  0  0  0  0  0  0  0  0  0
   -7.9275    6.1157    2.8218 N   0  0  0  0  0  0  0  0  0  0  0  0
   -8.9252    7.0257    2.6815 C   0  0  0  0  0  0  0  0  0  0  0  0
  -10.0782    6.9416    3.2396 N   0  0  0  0  0  0  0  0  0  0  0  0
   -8.5554    8.0373    1.8770 N   0  0  0  0  0  0  0  0  0  0  0  0
   -6.9694    3.7586    0.3877 C   0  0  0  0  0  0  0  0  0  0  0  0
   -5.9001    3.1559    0.4567 O   0  0  0  0  0  0  0  0  0  0  0  0
   -7.1605    4.8036   -0.4955 N   0  0  0  0  0  0  0  0  0  0  0  0
   -6.0425    5.3688   -1.2391 C   0  0  2  0  0  0  0  0  0  0  0  0
   -6.3897    6.7748   -1.7544 C   0  0  0  0  0  0  0  0  0  0  0  0
   -7.5100    7.2625   -1.6241 O   0  0  0  0  0  0  0  0  0  0  0  0
   -5.3221    7.4587   -2.2946 N   0  0  0  0  0  0  0  0  0  0  0  0
   -5.4844    8.7455   -2.9754 C   0  0  1  0  0  0  0  0  0  0  0  0
   -4.2009    9.5657   -2.7758 C   0  0  0  0  0  0  0  0  0  0  0  0
   -4.2665   11.0402   -3.1935 C   0  0  0  0  0  0  0  0  0  0  0  0
   -5.4141   11.8584   -2.5930 C   0  0  0  0  0  0  0  0  0  0  0  0
   -5.4305   11.8578   -1.0629 C   0  0  0  0  0  0  0  0  0  0  0  0
   -6.5174   12.6906   -0.5529 N   0  0  0  0  0  0  0  0  0  0  0  0
   -5.7787    8.5488   -4.4702 C   0  0  0  0  0  0  0  0  0  0  0  0
   -6.0201    9.4338   -5.2781 O   0  0  0  0  0  0  0  0  0  0  0  0
   -5.7294    7.2653   -4.8871 O   0  0  0  0  0  0  0  0  0  0  0  0
   -5.5818    4.4358   -2.3722 C   0  0  0  0  0  0  0  0  0  0  0  0
   -4.3370    3.7700   -2.0155 N   0  0  0  0  0  0  0  0  0  0  0  0
   -3.1636    4.5011   -2.0184 C   0  0  0  0  0  0  0  0  0  0  0  0
   -3.1312    5.6514   -2.4559 O   0  0  0  0  0  0  0  0  0  0  0  0
   10.5314    7.2554   -4.5114 H   0  0  0  0  0  0  0  0  0  0  0  0
   11.0432    5.6494   -5.0511 H   0  0  0  0  0  0  0  0  0  0  0  0
   11.9151    6.4650   -3.7349 H   0  0  0  0  0  0  0  0  0  0  0  0
    8.9854    5.5905   -3.6042 H   0  0  0  0  0  0  0  0  0  0  0  0
    9.8984    6.3411   -2.2957 H   0  0  0  0  0  0  0  0  0  0  0  0
   10.4868    3.6292   -3.5959 H   0  0  0  0  0  0  0  0  0  0  0  0
   11.4691    4.3370   -2.3214 H   0  0  0  0  0  0  0  0  0  0  0  0
    8.4857    3.6872   -2.0584 H   0  0  0  0  0  0  0  0  0  0  0  0
    9.7703    2.5703   -1.6225 H   0  0  0  0  0  0  0  0  0  0  0  0
   10.2268    5.1773   -0.2966 H   0  0  0  0  0  0  0  0  0  0  0  0
    7.6233    3.9003    0.3439 H   0  0  0  0  0  0  0  0  0  0  0  0
    6.9131    6.7665    2.4465 H   0  0  0  0  0  0  0  0  0  0  0  0
    6.8738    3.6927    2.4573 H   0  0  0  0  0  0  0  0  0  0  0  0
    5.6608    4.6462    3.2811 H   0  0  0  0  0  0  0  0  0  0  0  0
    8.9027    3.1710    3.5868 H   0  0  0  0  0  0  0  0  0  0  0  0
   10.3621    3.4180    5.5758 H   0  0  0  0  0  0  0  0  0  0  0  0
    7.9693    6.6816    6.9697 H   0  0  0  0  0  0  0  0  0  0  0  0
    6.4860    6.4655    4.9921 H   0  0  0  0  0  0  0  0  0  0  0  0
    5.6196    6.9338    0.6281 H   0  0  0  0  0  0  0  0  0  0  0  0
    3.6130    6.4250   -0.2810 H   0  0  0  0  0  0  0  0  0  0  0  0
    5.3537    4.8751   -2.2846 H   0  0  0  0  0  0  0  0  0  0  0  0
    3.8699    5.5967   -2.8481 H   0  0  0  0  0  0  0  0  0  0  0  0
    3.4624    8.0820   -2.6036 H   0  0  0  0  0  0  0  0  0  0  0  0
    4.5352   10.3079   -2.6831 H   0  0  0  0  0  0  0  0  0  0  0  0
    6.9733   10.5360   -2.2776 H   0  0  0  0  0  0  0  0  0  0  0  0
    8.3462    8.5192   -1.8349 H   0  0  0  0  0  0  0  0  0  0  0  0
    7.3003    6.2895   -1.7931 H   0  0  0  0  0  0  0  0  0  0  0  0
    3.0664    3.5859   -0.3632 H   0  0  0  0  0  0  0  0  0  0  0  0
   -0.7464    5.5770   -1.9932 H   0  0  0  0  0  0  0  0  0  0  0  0
   -2.8284    2.0278   -0.7226 H   0  0  0  0  0  0  0  0  0  0  0  0
    1.3870    2.3642   -0.0292 H   0  0  0  0  0  0  0  0  0  0  0  0
    0.6635    0.0770   -1.1183 H   0  0  0  0  0  0  0  0  0  0  0  0
   -1.4517   -1.6673   -0.0815 H   0  0  0  0  0  0  0  0  0  0  0  0
   -0.5369   -1.8339   -1.5689 H   0  0  0  0  0  0  0  0  0  0  0  0
    0.8339   -2.1906    1.1703 H   0  0  0  0  0  0  0  0  0  0  0  0
    2.1472   -3.7897   -0.4085 H   0  0  0  0  0  0  0  0  0  0  0  0
    3.3697   -3.7351   -2.3835 H   0  0  0  0  0  0  0  0  0  0  0  0
    3.3087   -1.8547   -4.0416 H   0  0  0  0  0  0  0  0  0  0  0  0
    4.4684   -0.9512   -3.0631 H   0  0  0  0  0  0  0  0  0  0  0  0
    4.9540   -2.4774   -3.8078 H   0  0  0  0  0  0  0  0  0  0  0  0
    5.1955   -1.9210   -0.8646 H   0  0  0  0  0  0  0  0  0  0  0  0
    6.1803   -4.7580    1.1985 H   0  0  0  0  0  0  0  0  0  0  0  0
    4.9978   -2.8288    2.3589 H   0  0  0  0  0  0  0  0  0  0  0  0
    5.8695   -1.6942    1.3205 H   0  0  0  0  0  0  0  0  0  0  0  0
    6.7670   -2.6959    2.4618 H   0  0  0  0  0  0  0  0  0  0  0  0
    7.0588   -2.9684   -0.9677 H   0  0  0  0  0  0  0  0  0  0  0  0
    9.1514   -2.4718   -1.3222 H   0  0  0  0  0  0  0  0  0  0  0  0
    8.7245   -4.8648   -2.1551 H   0  0  0  0  0  0  0  0  0  0  0  0
   10.2180   -5.3447   -1.3568 H   0  0  0  0  0  0  0  0  0  0  0  0
   11.5011   -3.7393   -2.7828 H   0  0  0  0  0  0  0  0  0  0  0  0
   10.0024   -3.1731   -3.5133 H   0  0  0  0  0  0  0  0  0  0  0  0
    9.5717   -5.3718   -4.5211 H   0  0  0  0  0  0  0  0  0  0  0  0
   11.1417   -4.7545   -5.0172 H   0  0  0  0  0  0  0  0  0  0  0  0
   10.5502   -6.8930   -3.0775 H   0  0  0  0  0  0  0  0  0  0  0  0
   13.1704   -5.0194   -4.1984 H   0  0  0  0  0  0  0  0  0  0  0  0
   12.2792   -8.3004   -2.5880 H   0  0  0  0  0  0  0  0  0  0  0  0
   13.5388   -7.4427   -1.9443 H   0  0  0  0  0  0  0  0  0  0  0  0
   11.4525   -3.7355    0.0243 H   0  0  0  0  0  0  0  0  0  0  0  0
   12.9381   -1.5602    0.7035 H   0  0  0  0  0  0  0  0  0  0  0  0
   11.3577   -2.8215    3.0328 H   0  0  0  0  0  0  0  0  0  0  0  0
   12.9789   -2.2235    3.2837 H   0  0  0  0  0  0  0  0  0  0  0  0
   14.8007   -3.0749    1.4465 H   0  0  0  0  0  0  0  0  0  0  0  0
   15.7692   -5.1942    0.6988 H   0  0  0  0  0  0  0  0  0  0  0  0
   15.5935   -7.6582    0.3909 H   0  0  0  0  0  0  0  0  0  0  0  0
   14.2886   -9.7397    0.5930 H   0  0  0  0  0  0  0  0  0  0  0  0
   11.9850   -9.6852    1.5130 H   0  0  0  0  0  0  0  0  0  0  0  0
   10.9914   -7.5501    2.2428 H   0  0  0  0  0  0  0  0  0  0  0  0
   11.1773   -5.1173    2.5817 H   0  0  0  0  0  0  0  0  0  0  0  0
   11.1013   -0.1706    2.5807 H   0  0  0  0  0  0  0  0  0  0  0  0
   11.0217    1.9455    2.6953 H   0  0  0  0  0  0  0  0  0  0  0  0
   12.5788    3.3011    3.7562 H   0  0  0  0  0  0  0  0  0  0  0  0
   13.4107    1.7614    3.5479 H   0  0  0  0  0  0  0  0  0  0  0  0
   14.8448    3.7446    3.0245 H   0  0  0  0  0  0  0  0  0  0  0  0
   14.6826    2.6600    1.6436 H   0  0  0  0  0  0  0  0  0  0  0  0
   13.1107    5.2405    2.1199 H   0  0  0  0  0  0  0  0  0  0  0  0
   14.3843    5.0069    0.9244 H   0  0  0  0  0  0  0  0  0  0  0  0
   12.1462    4.8530   -0.0899 H   0  0  0  0  0  0  0  0  0  0  0  0
   12.9977    3.3357   -0.2774 H   0  0  0  0  0  0  0  0  0  0  0  0
   -1.6266   -3.0053    1.5519 H   0  0  0  0  0  0  0  0  0  0  0  0
   -1.8539   -5.8341    0.6594 H   0  0  0  0  0  0  0  0  0  0  0  0
   -3.5153   -4.6964    2.9691 H   0  0  0  0  0  0  0  0  0  0  0  0
   -1.9034   -5.2779    3.3230 H   0  0  0  0  0  0  0  0  0  0  0  0
   -1.2496   -7.6705    2.3744 H   0  0  0  0  0  0  0  0  0  0  0  0
   -2.0492  -10.0023    2.3741 H   0  0  0  0  0  0  0  0  0  0  0  0
   -4.4629  -10.4948    2.6594 H   0  0  0  0  0  0  0  0  0  0  0  0
   -6.0777   -8.6370    2.9733 H   0  0  0  0  0  0  0  0  0  0  0  0
   -5.3023   -6.3053    2.9908 H   0  0  0  0  0  0  0  0  0  0  0  0
   -4.3932   -6.2929    0.3166 H   0  0  0  0  0  0  0  0  0  0  0  0
   -5.8146   -3.8746   -0.5731 H   0  0  0  0  0  0  0  0  0  0  0  0
   -6.1552   -4.7530   -2.8687 H   0  0  0  0  0  0  0  0  0  0  0  0
   -4.4687   -4.4095   -2.5549 H   0  0  0  0  0  0  0  0  0  0  0  0
   -2.7947   -6.2148   -2.3976 H   0  0  0  0  0  0  0  0  0  0  0  0
   -2.1978   -8.5057   -3.0146 H   0  0  0  0  0  0  0  0  0  0  0  0
   -2.8760  -10.7969   -3.7384 H   0  0  0  0  0  0  0  0  0  0  0  0
   -4.6428  -12.3836   -4.4007 H   0  0  0  0  0  0  0  0  0  0  0  0
   -7.0155  -11.6452   -4.4821 H   0  0  0  0  0  0  0  0  0  0  0  0
   -7.6096   -9.3404   -3.8939 H   0  0  0  0  0  0  0  0  0  0  0  0
   -6.9511   -7.0977   -3.1192 H   0  0  0  0  0  0  0  0  0  0  0  0
   -7.9688   -4.4159   -1.4393 H   0  0  0  0  0  0  0  0  0  0  0  0
   -9.1377   -6.6876   -1.5841 H   0  0  0  0  0  0  0  0  0  0  0  0
   -8.9515   -7.1949    0.9303 H   0  0  0  0  0  0  0  0  0  0  0  0
   -9.8848   -5.7586    1.2679 H   0  0  0  0  0  0  0  0  0  0  0  0
  -11.1568   -7.8832    1.4383 H   0  0  0  0  0  0  0  0  0  0  0  0
  -11.8955   -6.7242    0.3471 H   0  0  0  0  0  0  0  0  0  0  0  0
  -12.0032   -9.0371   -0.5414 H   0  0  0  0  0  0  0  0  0  0  0  0
  -11.1181   -7.9591   -1.6186 H   0  0  0  0  0  0  0  0  0  0  0  0
   -9.8392   -9.7579    0.3719 H   0  0  0  0  0  0  0  0  0  0  0  0
  -10.5323   -9.4317   -2.9428 H   0  0  0  0  0  0  0  0  0  0  0  0
   -8.1440  -11.4544   -1.8955 H   0  0  0  0  0  0  0  0  0  0  0  0
   -7.8189  -10.4947   -0.5921 H   0  0  0  0  0  0  0  0  0  0  0  0
   -9.6417   -3.5078   -0.0588 H   0  0  0  0  0  0  0  0  0  0  0  0
  -12.2588   -3.2697   -1.4916 H   0  0  0  0  0  0  0  0  0  0  0  0
  -12.7318   -4.1334    0.6756 H   0  0  0  0  0  0  0  0  0  0  0  0
  -13.2430   -2.4506    0.6459 H   0  0  0  0  0  0  0  0  0  0  0  0
  -10.6882   -3.5309    1.9570 H   0  0  0  0  0  0  0  0  0  0  0  0
  -11.1252   -1.8292    1.9025 H   0  0  0  0  0  0  0  0  0  0  0  0
  -12.7947   -4.0251    3.2034 H   0  0  0  0  0  0  0  0  0  0  0  0
  -13.2249   -2.3067    3.1597 H   0  0  0  0  0  0  0  0  0  0  0  0
  -10.9492   -1.9633    4.2479 H   0  0  0  0  0  0  0  0  0  0  0  0
  -13.6386   -3.7669    5.2397 H   0  0  0  0  0  0  0  0  0  0  0  0
  -10.2076   -2.6662    6.3590 H   0  0  0  0  0  0  0  0  0  0  0  0
  -11.4688   -2.5647    7.4320 H   0  0  0  0  0  0  0  0  0  0  0  0
   -9.7806   -1.1488    0.2401 H   0  0  0  0  0  0  0  0  0  0  0  0
  -10.5000    1.1163   -1.3383 H   0  0  0  0  0  0  0  0  0  0  0  0
  -11.5015    1.6461    1.4343 H   0  0  0  0  0  0  0  0  0  0  0  0
  -12.4933    0.4564    0.6403 H   0  0  0  0  0  0  0  0  0  0  0  0
  -12.9867    1.8843   -1.2339 H   0  0  0  0  0  0  0  0  0  0  0  0
  -11.7976    3.0682   -0.7779 H   0  0  0  0  0  0  0  0  0  0  0  0
  -14.4261    2.4174    0.6167 H   0  0  0  0  0  0  0  0  0  0  0  0
  -13.9815    3.9177   -0.1733 H   0  0  0  0  0  0  0  0  0  0  0  0
  -13.2542    2.9754    2.4859 H   0  0  0  0  0  0  0  0  0  0  0  0
  -10.6945    5.6022    1.3715 H   0  0  0  0  0  0  0  0  0  0  0  0
  -11.1798    5.4839    3.3236 H   0  0  0  0  0  0  0  0  0  0  0  0
  -12.6809    4.8769    3.6983 H   0  0  0  0  0  0  0  0  0  0  0  0
  -10.0104    3.2157    0.2407 H   0  0  0  0  0  0  0  0  0  0  0  0
   -8.7233    4.3916    1.4040 H   0  0  0  0  0  0  0  0  0  0  0  0
   -8.7342    2.5520    3.1509 H   0  0  0  0  0  0  0  0  0  0  0  0
   -7.1818    2.0150    2.5287 H   0  0  0  0  0  0  0  0  0  0  0  0
   -6.8389    3.3915    4.4675 H   0  0  0  0  0  0  0  0  0  0  0  0
   -6.1540    4.2219    3.0768 H   0  0  0  0  0  0  0  0  0  0  0  0
   -7.5247    5.6059    4.8002 H   0  0  0  0  0  0  0  0  0  0  0  0
   -8.9636    4.8114    4.1541 H   0  0  0  0  0  0  0  0  0  0  0  0
   -7.0118    6.5447    2.7228 H   0  0  0  0  0  0  0  0  0  0  0  0
  -10.6181    7.7792    2.9969 H   0  0  0  0  0  0  0  0  0  0  0  0
   -9.2972    8.6790    1.6106 H   0  0  0  0  0  0  0  0  0  0  0  0
   -8.0218    7.7620    1.0572 H   0  0  0  0  0  0  0  0  0  0  0  0
   -8.0445    5.3029   -0.5237 H   0  0  0  0  0  0  0  0  0  0  0  0
   -5.2390    5.5176   -0.5037 H   0  0  0  0  0  0  0  0  0  0  0  0
   -4.4872    6.9178   -2.5390 H   0  0  0  0  0  0  0  0  0  0  0  0
   -6.3515    9.2430   -2.5372 H   0  0  0  0  0  0  0  0  0  0  0  0
   -3.3794    9.0934   -3.3331 H   0  0  0  0  0  0  0  0  0  0  0  0
   -3.9003    9.5167   -1.7191 H   0  0  0  0  0  0  0  0  0  0  0  0
   -3.3161   11.5139   -2.9190 H   0  0  0  0  0  0  0  0  0  0  0  0
   -4.3295   11.1071   -4.2857 H   0  0  0  0  0  0  0  0  0  0  0  0
   -6.3720   11.4909   -2.9816 H   0  0  0  0  0  0  0  0  0  0  0  0
   -5.3186   12.8916   -2.9519 H   0  0  0  0  0  0  0  0  0  0  0  0
   -4.4787   12.2322   -0.6733 H   0  0  0  0  0  0  0  0  0  0  0  0
   -5.5686   10.8420   -0.6775 H   0  0  0  0  0  0  0  0  0  0  0  0
   -7.3965   12.4037   -0.9784 H   0  0  0  0  0  0  0  0  0  0  0  0
   -6.3696   13.6560   -0.8474 H   0  0  0  0  0  0  0  0  0  0  0  0
   -5.9361    7.3153   -5.8449 H   0  0  0  0  0  0  0  0  0  0  0  0
   -5.4203    4.9667   -3.3158 H   0  0  0  0  0  0  0  0  0  0  0  0
   -6.3168    3.6482   -2.5676 H   0  0  0  0  0  0  0  0  0  0  0  0
   -4.4472    2.9968   -1.3639 H   0  0  0  0  0  0  0  0  0  0  0  0
  1  2  1  0
  2  3  1  0
  3  4  1  0
  4  5  1  0
  5  6  1  0
  6  7  1  0
  7  8  2  0
  7  9  1  0
  9 10  1  0
 10 11  1  0
 11 12  1  0
 12 13  2  0
 13 14  1  0
 14 15  1  0
 14 16  2  0
 16 17  1  0
  9 18  1  0
 18 19  1  0
 19 20  2  0
 19 21  1  0
 21 22  1  0
 22 23  1  0
 23 24  2  0
 24 25  1  0
 25 26  2  0
 26 27  1  0
 27 28  2  0
 21 29  1  0
 29 30  1  0
 30 31  2  0
 30 32  1  0
 32 33  1  0
 33 34  2  0
 34 35  1  0
 35 36  2  0
 36 37  1  0
 36 38  1  0
 38 39  2  0
 38 40  1  0
 40 41  1  0
 41 42  1  0
 42 43  1  0
 43 44  1  0
 44 45  2  0
 44 46  1  0
 46 47  1  0
 46 48  1  0
 48 49  1  0
 49 50  2  0
 49 51  1  0
 51 52  1  0
 51 53  1  0
 53 54  1  0
 54 55  2  0
 54 56  1  0
 56 57  1  0
 57 58  1  0
 58 59  1  0
 59 60  1  0
 60 61  1  0
 61 62  2  3
 61 63  1  0
 56 64  1  0
 64 65  1  0
 65 66  2  0
 65 67  1  0
 67 68  1  0
 68 69  1  0
 69 70  1  0
 70 71  2  0
 71 72  1  0
 72 73  2  0
 73 74  1  0
 74 75  2  0
 75 76  1  0
 76 77  2  0
 77 78  1  0
 67 79  1  0
 79 80  1  0
 80 81  2  0
 80 82  1  0
 82 83  1  0
 83 84  1  0
 84 85  1  0
 85 86  1  0
 86 87  1  0
 87 88  1  0
 88 89  2  0
 42 90  1  0
 90 91  2  0
 90 92  1  0
 92 93  1  0
 93 94  1  0
 94 95  1  0
 95 96  2  0
 96 97  1  0
 97 98  2  0
 98 99  1  0
 99100  2  0
 93101  1  0
101102  2  0
101103  1  0
103104  1  0
104105  1  0
105106  1  0
106107  1  0
107108  2  0
108109  1  0
109110  2  0
110111  1  0
111112  2  0
112113  1  0
113114  2  0
114115  1  0
104116  1  0
116117  2  0
116118  1  0
118119  1  0
119120  1  0
120121  1  0
121122  1  0
122123  1  0
123124  1  0
124125  2  3
124126  1  0
119127  1  0
127128  2  0
127129  1  0
129130  1  0
130131  1  0
131132  1  0
132133  1  0
133134  1  0
134135  1  0
135136  2  3
135137  1  0
130138  1  0
138139  2  0
138140  1  0
140141  1  0
141142  1  0
142143  1  0
143144  1  0
144145  1  0
145146  1  0
146147  2  3
146148  1  0
141149  1  0
149150  2  0
149151  1  0
151152  1  0
152153  1  0
153154  1  0
154155  1  0
155156  1  0
156157  1  0
157158  2  3
157159  1  0
152160  1  0
160161  2  0
160162  1  0
162163  1  0
163164  1  0
164165  2  0
164166  1  0
166167  1  0
167168  1  0
168169  1  0
169170  1  0
170171  1  0
171172  1  0
167173  1  0
173174  2  0
173175  1  0
163176  1  0
176177  1  0
177178  1  0
178179  2  0
 88  5  1  0
100 95  1  0
115106  2  0
 17 11  2  0
 28 23  1  0
 37 32  2  0
 78 69  2  0
 87 82  1  0
114109  1  0
178 34  1  0
 77 72  1  0
  1180  1  0
  1181  1  0
  1182  1  0
  2183  1  0
  2184  1  0
  3185  1  0
  3186  1  0
  4187  1  0
  4188  1  0
  5189  1  6
  6190  1  0
  9191  1  1
 10192  1  0
 10193  1  0
 12194  1  0
 13195  1  0
 16196  1  0
 17197  1  0
 18198  1  0
 21199  1  1
 22200  1  0
 22201  1  0
 24202  1  0
 25203  1  0
 26204  1  0
 27205  1  0
 28206  1  0
 29207  1  0
 33208  1  0
 35209  1  0
 37210  1  0
 40211  1  0
 41212  1  0
 41213  1  0
 42214  1  1
 43215  1  0
 46216  1  6
 47217  1  0
 47218  1  0
 47219  1  0
 48220  1  0
 51221  1  1
 52222  1  0
 52223  1  0
 52224  1  0
 53225  1  0
 56226  1  6
 57227  1  0
 57228  1  0
 58229  1  0
 58230  1  0
 59231  1  0
 59232  1  0
 60233  1  0
 62234  1  0
 63235  1  0
 63236  1  0
 64237  1  0
 67238  1  6
 68239  1  0
 68240  1  0
 70241  1  0
 71242  1  0
 73243  1  0
 74244  1  0
 75245  1  0
 76246  1  0
 78247  1  0
 79248  1  0
 82249  1  1
 83250  1  0
 83251  1  0
 84252  1  0
 84253  1  0
 85254  1  0
 85255  1  0
 86256  1  0
 86257  1  0
 92258  1  0
 93259  1  6
 94260  1  0
 94261  1  0
 96262  1  0
 97263  1  0
 98264  1  0
 99265  1  0
100266  1  0
103267  1  0
104268  1  6
105269  1  0
105270  1  0
107271  1  0
108272  1  0
110273  1  0
111274  1  0
112275  1  0
113276  1  0
115277  1  0
118278  1  0
119279  1  6
120280  1  0
120281  1  0
121282  1  0
121283  1  0
122284  1  0
122285  1  0
123286  1  0
125287  1  0
126288  1  0
126289  1  0
129290  1  0
130291  1  6
131292  1  0
131293  1  0
132294  1  0
132295  1  0
133296  1  0
133297  1  0
134298  1  0
136299  1  0
137300  1  0
137301  1  0
140302  1  0
141303  1  6
142304  1  0
142305  1  0
143306  1  0
143307  1  0
144308  1  0
144309  1  0
145310  1  0
147311  1  0
148312  1  0
148313  1  0
151314  1  0
152315  1  1
153316  1  0
153317  1  0
154318  1  0
154319  1  0
155320  1  0
155321  1  0
156322  1  0
158323  1  0
159324  1  0
159325  1  0
162326  1  0
163327  1  1
166328  1  0
167329  1  1
168330  1  0
168331  1  0
169332  1  0
169333  1  0
170334  1  0
170335  1  0
171336  1  0
171337  1  0
172338  1  0
172339  1  0
175340  1  0
176341  1  0
176342  1  0
177343  1  0
M  END
$$$$
