
     RDKit          3D

120124  0  0  0  0  0  0  0  0999 V2000
    1.8039   -3.8578    2.7880 C   0  0  0  0  0  0  0  0  0  0  0  0
    1.4169   -2.9323    1.6350 C   0  0  2  0  0  0  0  0  0  0  0  0
    2.2022   -1.6971    1.6342 N   0  0  0  0  0  0  0  0  0  0  0  0
    3.5624   -1.6583    1.4677 C   0  0  0  0  0  0  0  0  0  0  0  0
    4.2441   -2.6640    1.2750 O   0  0  0  0  0  0  0  0  0  0  0  0
    4.1979   -0.2564    1.5196 C   0  0  2  0  0  0  0  0  0  0  0  0
    3.9745    0.4957    2.8427 C   0  0  0  0  0  0  0  0  0  0  0  0
    4.8219   -0.0538    3.9946 C   0  0  0  0  0  0  0  0  0  0  0  0
    4.1605   -1.1827    4.7497 C   0  0  0  0  0  0  0  0  0  0  0  0
    5.0034   -1.8789    5.5640 N   0  0  0  0  0  0  0  0  0  0  0  0
    2.9658   -1.4421    4.7053 O   0  0  0  0  0  0  0  0  0  0  0  0
    3.7024    0.5206    0.3853 N   0  0  0  0  0  0  0  0  0  0  0  0
    4.4750    1.4988   -0.2061 C   0  0  0  0  0  0  0  0  0  0  0  0
    5.5350    1.8804    0.2858 O   0  0  0  0  0  0  0  0  0  0  0  0
    3.9279    2.0104   -1.5558 C   0  0  2  0  0  0  0  0  0  0  0  0
    4.9052    2.9759   -2.2502 C   0  0  0  0  0  0  0  0  0  0  0  0
    5.8647    2.2629   -3.1742 C   0  0  0  0  0  0  0  0  0  0  0  0
    7.1081    1.8123   -2.7092 C   0  0  0  0  0  0  0  0  0  0  0  0
    7.9854    1.1437   -3.5690 C   0  0  0  0  0  0  0  0  0  0  0  0
    7.6133    0.9216   -4.8914 C   0  0  0  0  0  0  0  0  0  0  0  0
    8.4411    0.2776   -5.7639 O   0  0  0  0  0  0  0  0  0  0  0  0
    6.3806    1.3507   -5.3661 C   0  0  0  0  0  0  0  0  0  0  0  0
    5.5067    2.0199   -4.5087 C   0  0  0  0  0  0  0  0  0  0  0  0
    2.6194    2.6530   -1.3737 N   0  0  0  0  0  0  0  0  0  0  0  0
    1.4475    1.9278   -1.4061 C   0  0  0  0  0  0  0  0  0  0  0  0
    1.4479    0.6967   -1.3535 O   0  0  0  0  0  0  0  0  0  0  0  0
    0.1656    2.7645   -1.5778 C   0  0  2  0  0  0  0  0  0  0  0  0
   -0.1533    3.6684   -0.3811 C   0  0  0  0  0  0  0  0  0  0  0  0
   -0.4199    2.9460    0.9162 C   0  0  0  0  0  0  0  0  0  0  0  0
    0.5890    2.8042    1.8751 C   0  0  0  0  0  0  0  0  0  0  0  0
    0.3259    2.1500    3.0810 C   0  0  0  0  0  0  0  0  0  0  0  0
   -0.9432    1.6168    3.3501 C   0  0  0  0  0  0  0  0  0  0  0  0
   -1.2135    0.9437    4.5521 C   0  0  0  0  0  0  0  0  0  0  0  0
   -2.4793    0.4122    4.8053 C   0  0  0  0  0  0  0  0  0  0  0  0
   -3.4900    0.5476    3.8584 C   0  0  0  0  0  0  0  0  0  0  0  0
   -3.2377    1.2117    2.6572 C   0  0  0  0  0  0  0  0  0  0  0  0
   -1.9682    1.7508    2.3890 C   0  0  0  0  0  0  0  0  0  0  0  0
   -1.6916    2.4171    1.1829 C   0  0  0  0  0  0  0  0  0  0  0  0
   -0.9383    1.8932   -1.9614 N   0  0  0  0  0  0  0  0  0  0  0  0
   -1.8880    2.2831   -2.8759 C   0  0  0  0  0  0  0  0  0  0  0  0
   -1.9215    3.4257   -3.3281 O   0  0  0  0  0  0  0  0  0  0  0  0
   -2.8311    1.1483   -3.3492 C   0  0  2  0  0  0  0  0  0  0  0  0
   -3.7526    1.6042   -4.4922 C   0  0  0  0  0  0  0  0  0  0  0  0
   -4.9266    2.4503   -4.0055 C   0  0  0  0  0  0  0  0  0  0  0  0
   -5.6819    1.7314   -2.8954 C   0  0  0  0  0  0  0  0  0  0  0  0
   -4.7444    1.3355   -1.7635 C   0  0  0  0  0  0  0  0  0  0  0  0
   -3.6103    0.5434   -2.2490 N   0  0  0  0  0  0  0  0  0  0  0  0
   -3.0251   -0.4835   -1.5175 C   0  0  0  0  0  0  0  0  0  0  0  0
   -1.8425   -0.7996   -1.7005 O   0  0  0  0  0  0  0  0  0  0  0  0
   -3.9048   -1.3064   -0.5509 C   0  0  1  0  0  0  0  0  0  0  0  0
   -4.8834   -2.1904   -1.3710 C   0  0  1  0  0  0  0  0  0  0  0  0
   -4.1701   -3.1788   -2.2919 C   0  0  0  0  0  0  0  0  0  0  0  0
   -5.7287   -2.9701   -0.5258 O   0  0  0  0  0  0  0  0  0  0  0  0
   -6.9544   -2.2352    0.1909 P   0  0  0  0  0  0  0  0  0  0  0  0
   -6.9799   -0.7471    0.1664 O   0  0  0  0  0  0  0  0  0  0  0  0
   -6.9764   -2.8926    1.6424 O   0  0  0  0  0  0  0  0  0  0  0  0
   -8.2142   -2.9614   -0.4661 O   0  0  0  0  0  0  0  0  0  0  0  0
   -3.0318   -2.0953    0.3263 N   0  0  0  0  0  0  0  0  0  0  0  0
   -3.4033   -2.4768    1.5912 C   0  0  0  0  0  0  0  0  0  0  0  0
   -4.5366   -2.2904    2.0416 O   0  0  0  0  0  0  0  0  0  0  0  0
   -2.3177   -3.1470    2.4420 C   0  0  0  0  0  0  0  0  0  0  0  0
   -1.0540   -3.4679    1.7741 N   0  0  0  0  0  0  0  0  0  0  0  0
   -0.9398   -4.7780    1.1562 C   0  0  0  0  0  0  0  0  0  0  0  0
   -0.0597   -2.5052    1.7921 C   0  0  0  0  0  0  0  0  0  0  0  0
   -0.3527   -1.3188    1.9667 O   0  0  0  0  0  0  0  0  0  0  0  0
    2.8757   -4.0836    2.7970 H   0  0  0  0  0  0  0  0  0  0  0  0
    1.5511   -3.4074    3.7560 H   0  0  0  0  0  0  0  0  0  0  0  0
    1.2753   -4.8134    2.7336 H   0  0  0  0  0  0  0  0  0  0  0  0
    1.5760   -3.4157    0.6678 H   0  0  0  0  0  0  0  0  0  0  0  0
    1.6831   -0.8457    1.8394 H   0  0  0  0  0  0  0  0  0  0  0  0
    5.2776   -0.3915    1.3671 H   0  0  0  0  0  0  0  0  0  0  0  0
    2.9117    0.5100    3.1114 H   0  0  0  0  0  0  0  0  0  0  0  0
    4.2622    1.5461    2.7010 H   0  0  0  0  0  0  0  0  0  0  0  0
    4.9773    0.7463    4.7270 H   0  0  0  0  0  0  0  0  0  0  0  0
    5.8099   -0.3689    3.6392 H   0  0  0  0  0  0  0  0  0  0  0  0
    4.6223   -2.6469    6.0994 H   0  0  0  0  0  0  0  0  0  0  0  0
    5.9875   -1.6648    5.6566 H   0  0  0  0  0  0  0  0  0  0  0  0
    2.8447    0.2211   -0.0890 H   0  0  0  0  0  0  0  0  0  0  0  0
    3.7708    1.1260   -2.1886 H   0  0  0  0  0  0  0  0  0  0  0  0
    5.4666    3.5820   -1.5282 H   0  0  0  0  0  0  0  0  0  0  0  0
    4.3496    3.7037   -2.8591 H   0  0  0  0  0  0  0  0  0  0  0  0
    7.4058    1.9814   -1.6777 H   0  0  0  0  0  0  0  0  0  0  0  0
    8.9436    0.8043   -3.1885 H   0  0  0  0  0  0  0  0  0  0  0  0
    9.2655    0.0583   -5.2976 H   0  0  0  0  0  0  0  0  0  0  0  0
    6.1035    1.1669   -6.3997 H   0  0  0  0  0  0  0  0  0  0  0  0
    4.5460    2.3522   -4.8943 H   0  0  0  0  0  0  0  0  0  0  0  0
    2.5891    3.6626   -1.3085 H   0  0  0  0  0  0  0  0  0  0  0  0
    0.3645    3.4220   -2.4362 H   0  0  0  0  0  0  0  0  0  0  0  0
    0.6710    4.3787   -0.2243 H   0  0  0  0  0  0  0  0  0  0  0  0
   -1.0280    4.2896   -0.6138 H   0  0  0  0  0  0  0  0  0  0  0  0
    1.5846    3.2029    1.7025 H   0  0  0  0  0  0  0  0  0  0  0  0
    1.1222    2.0582    3.8172 H   0  0  0  0  0  0  0  0  0  0  0  0
   -0.4314    0.8179    5.2995 H   0  0  0  0  0  0  0  0  0  0  0  0
   -2.6727   -0.1114    5.7379 H   0  0  0  0  0  0  0  0  0  0  0  0
   -4.4744    0.1288    4.0449 H   0  0  0  0  0  0  0  0  0  0  0  0
   -4.0402    1.3047    1.9309 H   0  0  0  0  0  0  0  0  0  0  0  0
   -2.4787    2.5291    0.4427 H   0  0  0  0  0  0  0  0  0  0  0  0
   -0.8615    0.9015   -1.7177 H   0  0  0  0  0  0  0  0  0  0  0  0
   -2.1705    0.3789   -3.7707 H   0  0  0  0  0  0  0  0  0  0  0  0
   -4.1565    0.7131   -4.9913 H   0  0  0  0  0  0  0  0  0  0  0  0
   -3.1883    2.1611   -5.2502 H   0  0  0  0  0  0  0  0  0  0  0  0
   -4.5694    3.4208   -3.6392 H   0  0  0  0  0  0  0  0  0  0  0  0
   -5.6050    2.6583   -4.8409 H   0  0  0  0  0  0  0  0  0  0  0  0
   -6.4794    2.3746   -2.5092 H   0  0  0  0  0  0  0  0  0  0  0  0
   -6.1602    0.8331   -3.3051 H   0  0  0  0  0  0  0  0  0  0  0  0
   -5.3100    0.7995   -1.0049 H   0  0  0  0  0  0  0  0  0  0  0  0
   -4.3328    2.2273   -1.2769 H   0  0  0  0  0  0  0  0  0  0  0  0
   -4.4386   -0.6309    0.1200 H   0  0  0  0  0  0  0  0  0  0  0  0
   -5.5199   -1.5566   -1.9989 H   0  0  0  0  0  0  0  0  0  0  0  0
   -4.9018   -3.8269   -2.7879 H   0  0  0  0  0  0  0  0  0  0  0  0
   -3.5930   -2.6685   -3.0694 H   0  0  0  0  0  0  0  0  0  0  0  0
   -3.5006   -3.8382   -1.7329 H   0  0  0  0  0  0  0  0  0  0  0  0
   -6.1610   -2.6032    2.1253 H   0  0  0  0  0  0  0  0  0  0  0  0
   -8.2461   -3.8853   -0.1642 H   0  0  0  0  0  0  0  0  0  0  0  0
   -2.0296   -2.0308    0.1440 H   0  0  0  0  0  0  0  0  0  0  0  0
   -2.1116   -2.4785    3.2848 H   0  0  0  0  0  0  0  0  0  0  0  0
   -2.7325   -4.0768    2.8482 H   0  0  0  0  0  0  0  0  0  0  0  0
   -0.9231   -5.5385    1.9416 H   0  0  0  0  0  0  0  0  0  0  0  0
   -0.0383   -4.8627    0.5451 H   0  0  0  0  0  0  0  0  0  0  0  0
   -1.8100   -4.9427    0.5109 H   0  0  0  0  0  0  0  0  0  0  0  0
  1  2  1  0
  2  3  1  0
  3  4  1  0
  4  5  2  0
  4  6  1  0
  6  7  1  0
  7  8  1  0
  8  9  1  0
  9 10  1  0
  9 11  2  0
  6 12  1  0
 12 13  1  0
 13 14  2  0
 13 15  1  0
 15 16  1  0
 16 17  1  0
 17 18  1  0
 18 19  2  0
 19 20  1  0
 20 21  1  0
 20 22  2  0
 22 23  1  0
 15 24  1  0
 24 25  1  0
 25 26  2  0
 25 27  1  0
 27 28  1  0
 28 29  1  0
 29 30  1  0
 30 31  2  0
 31 32  1  0
 32 33  2  0
 33 34  1  0
 34 35  2  0
 35 36  1  0
 36 37  2  0
 37 38  1  0
 27 39  1  0
 39 40  1  0
 40 41  2  0
 40 42  1  0
 42 43  1  0
 43 44  1  0
 44 45  1  0
 45 46  1  0
 46 47  1  0
 47 48  1  0
 48 49  2  0
 48 50  1  0
 50 51  1  0
 51 52  1  0
 51 53  1  0
 53 54  1  0
 54 55  2  0
 54 56  1  0
 54 57  1  0
 50 58  1  0
 58 59  1  0
 59 60  2  0
 59 61  1  0
 61 62  1  0
 62 63  1  0
 62 64  1  0
 64 65  2  0
 64  2  1  0
 23 17  2  0
 38 29  2  0
 47 42  1  0
 37 32  1  0
  1 66  1  0
  1 67  1  0
  1 68  1  0
  2 69  1  6
  3 70  1  0
  6 71  1  6
  7 72  1  0
  7 73  1  0
  8 74  1  0
  8 75  1  0
 10 76  1  0
 10 77  1  0
 12 78  1  0
 15 79  1  6
 16 80  1  0
 16 81  1  0
 18 82  1  0
 19 83  1  0
 21 84  1  0
 22 85  1  0
 23 86  1  0
 24 87  1  0
 27 88  1  6
 28 89  1  0
 28 90  1  0
 30 91  1  0
 31 92  1  0
 33 93  1  0
 34 94  1  0
 35 95  1  0
 36 96  1  0
 38 97  1  0
 39 98  1  0
 42 99  1  6
 43100  1  0
 43101  1  0
 44102  1  0
 44103  1  0
 45104  1  0
 45105  1  0
 46106  1  0
 46107  1  0
 50108  1  1
 51109  1  6
 52110  1  0
 52111  1  0
 52112  1  0
 56113  1  0
 57114  1  0
 58115  1  0
 61116  1  0
 61117  1  0
 63118  1  0
 63119  1  0
 63120  1  0
M  END
$$$$
