
     RDKit          3D

 47 49  0  0  0  0  0  0  0  0999 V2000
   -0.6201    0.4770   -1.6459 O   0  0  0  0  0  0  0  0  0  0  0  0
   -0.0489    0.3008   -0.5733 C   0  0  0  0  0  0  0  0  0  0  0  0
   -0.6615    0.5324    0.6440 N   0  0  0  0  0  0  0  0  0  0  0  0
   -2.0098    1.1075    0.7278 C   0  0  2  0  0  0  0  0  0  0  0  0
   -1.9569    2.6528    0.7482 C   0  0  0  0  0  0  0  0  0  0  0  0
   -1.0932    3.1728   -0.2478 O   0  0  0  0  0  0  0  0  0  0  0  0
   -1.6299    3.4719   -1.7239 P   0  0  0  0  0  0  0  0  0  0  0  0
   -0.6294    3.9735   -2.7049 O   0  0  0  0  0  0  0  0  0  0  0  0
   -2.8141    4.5215   -1.4767 O   0  0  0  0  0  0  0  0  0  0  0  0
   -2.4330    2.1744   -2.1827 O   0  0  0  0  0  0  0  0  0  0  0  0
   -2.7645    0.5935    1.9726 C   0  0  0  0  0  0  0  0  0  0  0  0
   -2.8898   -0.9134    2.0811 C   0  0  0  0  0  0  0  0  0  0  0  0
   -3.3071   -1.7006    0.9966 C   0  0  0  0  0  0  0  0  0  0  0  0
   -3.4303   -3.0886    1.1235 C   0  0  0  0  0  0  0  0  0  0  0  0
   -3.1540   -3.7054    2.3404 C   0  0  0  0  0  0  0  0  0  0  0  0
   -2.7584   -2.9293    3.4204 C   0  0  0  0  0  0  0  0  0  0  0  0
   -2.5039   -3.5164    4.5955 F   0  0  0  0  0  0  0  0  0  0  0  0
   -2.6273   -1.5483    3.3050 C   0  0  0  0  0  0  0  0  0  0  0  0
    1.3764   -0.1343   -0.5424 C   0  0  0  0  0  0  0  0  0  0  0  0
    1.9573   -0.7183    0.5914 C   0  0  0  0  0  0  0  0  0  0  0  0
    3.3109   -1.0680    0.5817 C   0  0  0  0  0  0  0  0  0  0  0  0
    4.0987   -0.8671   -0.5618 C   0  0  0  0  0  0  0  0  0  0  0  0
    5.4609   -1.2096   -0.5795 C   0  0  0  0  0  0  0  0  0  0  0  0
    6.2281   -1.0153   -1.7321 C   0  0  0  0  0  0  0  0  0  0  0  0
    5.6434   -0.4776   -2.8763 C   0  0  0  0  0  0  0  0  0  0  0  0
    4.2921   -0.1252   -2.8717 C   0  0  0  0  0  0  0  0  0  0  0  0
    3.5079   -0.3071   -1.7221 C   0  0  0  0  0  0  0  0  0  0  0  0
    2.1513    0.0567   -1.6987 C   0  0  0  0  0  0  0  0  0  0  0  0
   -0.0884    0.5805    1.4748 H   0  0  0  0  0  0  0  0  0  0  0  0
   -2.5538    0.7933   -0.1664 H   0  0  0  0  0  0  0  0  0  0  0  0
   -1.5613    2.9984    1.7089 H   0  0  0  0  0  0  0  0  0  0  0  0
   -2.9632    3.0732    0.6472 H   0  0  0  0  0  0  0  0  0  0  0  0
   -2.9810    5.0069   -2.3048 H   0  0  0  0  0  0  0  0  0  0  0  0
   -1.7902    1.4274   -2.2801 H   0  0  0  0  0  0  0  0  0  0  0  0
   -2.2509    0.9701    2.8683 H   0  0  0  0  0  0  0  0  0  0  0  0
   -3.7784    1.0171    1.9907 H   0  0  0  0  0  0  0  0  0  0  0  0
   -3.5404   -1.2476    0.0357 H   0  0  0  0  0  0  0  0  0  0  0  0
   -3.7442   -3.6841    0.2699 H   0  0  0  0  0  0  0  0  0  0  0  0
   -3.2520   -4.7812    2.4551 H   0  0  0  0  0  0  0  0  0  0  0  0
   -2.3220   -0.9822    4.1779 H   0  0  0  0  0  0  0  0  0  0  0  0
    1.3772   -0.9285    1.4860 H   0  0  0  0  0  0  0  0  0  0  0  0
    3.7466   -1.5087    1.4763 H   0  0  0  0  0  0  0  0  0  0  0  0
    5.9371   -1.6273    0.3071 H   0  0  0  0  0  0  0  0  0  0  0  0
    7.2822   -1.2838   -1.7334 H   0  0  0  0  0  0  0  0  0  0  0  0
    6.2377   -0.3331   -3.7747 H   0  0  0  0  0  0  0  0  0  0  0  0
    3.8542    0.2964   -3.7782 H   0  0  0  0  0  0  0  0  0  0  0  0
    1.6961    0.5031   -2.5821 H   0  0  0  0  0  0  0  0  0  0  0  0
  1  2  2  0
  2  3  1  0
  3  4  1  0
  4  5  1  0
  5  6  1  0
  6  7  1  0
  7  8  2  0
  7  9  1  0
  7 10  1  0
  4 11  1  0
 11 12  1  0
 12 13  2  0
 13 14  1  0
 14 15  2  0
 15 16  1  0
 16 17  1  0
 16 18  2  0
  2 19  1  0
 19 20  1  0
 20 21  2  0
 21 22  1  0
 22 23  2  0
 23 24  1  0
 24 25  2  0
 25 26  1  0
 26 27  2  0
 27 28  1  0
 18 12  1  0
 28 19  2  0
 27 22  1  0
  3 29  1  0
  4 30  1  6
  5 31  1  0
  5 32  1  0
  9 33  1  0
 10 34  1  0
 11 35  1  0
 11 36  1  0
 13 37  1  0
 14 38  1  0
 15 39  1  0
 18 40  1  0
 20 41  1  0
 21 42  1  0
 23 43  1  0
 24 44  1  0
 25 45  1  0
 26 46  1  0
 28 47  1  0
M  END
$$$$
