
     RDKit          3D

185191  0  0  0  0  0  0  0  0999 V2000
    9.3109    2.6364    4.6907 C   0  0  0  0  0  0  0  0  0  0  0  0
    8.8440    2.4463    3.2730 C   0  0  0  0  0  0  0  0  0  0  0  0
    8.9289    3.3266    2.4263 O   0  0  0  0  0  0  0  0  0  0  0  0
    8.3588    1.1848    3.0079 N   0  0  0  0  0  0  0  0  0  0  0  0
    7.7376    0.9043    1.7191 C   0  0  1  0  0  0  0  0  0  0  0  0
    7.9046   -0.5675    1.3216 C   0  0  0  0  0  0  0  0  0  0  0  0
    9.3418   -1.0986    1.2855 C   0  0  0  0  0  0  0  0  0  0  0  0
   10.2428   -0.4983    0.2037 C   0  0  0  0  0  0  0  0  0  0  0  0
   11.0259    0.7334    0.6581 C   0  0  0  0  0  0  0  0  0  0  0  0
   12.0803    1.0587   -0.2813 N   0  0  0  0  0  0  0  0  0  0  0  0
   13.3139    0.4433   -0.2291 C   0  0  0  0  0  0  0  0  0  0  0  0
   13.6217   -0.3895    0.6162 O   0  0  0  0  0  0  0  0  0  0  0  0
   14.2381    0.8850   -1.3485 C   0  0  0  0  0  0  0  0  0  0  0  0
   15.6543    0.3375   -1.1737 C   0  0  0  0  0  0  0  0  0  0  0  0
   16.5554    0.7463   -2.3410 C   0  0  0  0  0  0  0  0  0  0  0  0
   17.9977    0.2398   -2.2004 C   0  0  0  0  0  0  0  0  0  0  0  0
   18.8106    0.8743   -1.0650 C   0  0  2  0  0  0  0  0  0  0  0  0
   19.1014    2.6622   -1.3017 S   0  0  0  0  0  0  0  0  0  0  0  0
   20.8703    2.6128   -0.9226 C   0  0  0  0  0  0  0  0  0  0  0  0
   21.1450    1.2669   -0.2460 C   0  0  2  0  0  0  0  0  0  0  0  0
   22.4293    0.7298   -0.6383 N   0  0  0  0  0  0  0  0  0  0  0  0
   22.2897   -0.0792   -1.7556 C   0  0  0  0  0  0  0  0  0  0  0  0
   23.1944   -0.5871   -2.3875 O   0  0  0  0  0  0  0  0  0  0  0  0
   20.9308   -0.2259   -2.0065 N   0  0  0  0  0  0  0  0  0  0  0  0
   20.1869    0.2355   -0.8531 C   0  0  2  0  0  0  0  0  0  0  0  0
    6.2287    1.2059    1.8399 C   0  0  0  0  0  0  0  0  0  0  0  0
    5.5749    0.9082    2.8403 O   0  0  0  0  0  0  0  0  0  0  0  0
    5.6668    1.7791    0.7218 N   0  0  0  0  0  0  0  0  0  0  0  0
    4.2242    1.9128    0.5620 C   0  0  1  0  0  0  0  0  0  0  0  0
    3.8702    3.2988    0.0450 C   0  0  0  0  0  0  0  0  0  0  0  0
    3.8182    0.8442   -0.4670 C   0  0  0  0  0  0  0  0  0  0  0  0
    4.2906    0.8217   -1.6015 O   0  0  0  0  0  0  0  0  0  0  0  0
    2.9352   -0.1082   -0.0036 N   0  0  0  0  0  0  0  0  0  0  0  0
    2.6263   -1.2938   -0.8076 C   0  0  1  0  0  0  0  0  0  0  0  0
    3.7355   -2.3348   -0.7000 C   0  0  0  0  0  0  0  0  0  0  0  0
    1.2670   -1.8719   -0.3647 C   0  0  0  0  0  0  0  0  0  0  0  0
    1.0799   -3.0557   -0.1025 O   0  0  0  0  0  0  0  0  0  0  0  0
    0.2484   -0.9457   -0.3335 N   0  0  0  0  0  0  0  0  0  0  0  0
   -1.1304   -1.3215   -0.0078 C   0  0  1  0  0  0  0  0  0  0  0  0
   -1.3074   -1.4915    1.5082 C   0  0  0  0  0  0  0  0  0  0  0  0
   -2.5044   -2.3181    1.9167 C   0  0  0  0  0  0  0  0  0  0  0  0
   -2.6355   -3.6439    1.4867 C   0  0  0  0  0  0  0  0  0  0  0  0
   -3.7071   -4.4270    1.9218 C   0  0  0  0  0  0  0  0  0  0  0  0
   -4.6670   -3.9179    2.8105 C   0  0  0  0  0  0  0  0  0  0  0  0
   -5.7520   -4.7716    3.3188 C   0  0  0  0  0  0  0  0  0  0  0  0
   -7.0973   -4.3847    3.2123 C   0  0  0  0  0  0  0  0  0  0  0  0
   -8.1203   -5.2057    3.6966 C   0  0  0  0  0  0  0  0  0  0  0  0
   -7.8138   -6.4250    4.2974 C   0  0  0  0  0  0  0  0  0  0  0  0
   -6.4853   -6.8233    4.4175 C   0  0  0  0  0  0  0  0  0  0  0  0
   -5.4637   -6.0054    3.9309 C   0  0  0  0  0  0  0  0  0  0  0  0
   -4.5323   -2.5853    3.2283 C   0  0  0  0  0  0  0  0  0  0  0  0
   -3.4616   -1.7994    2.7936 C   0  0  0  0  0  0  0  0  0  0  0  0
   -2.0463   -0.2088   -0.5533 C   0  0  0  0  0  0  0  0  0  0  0  0
   -1.6331    0.9394   -0.7446 O   0  0  0  0  0  0  0  0  0  0  0  0
   -3.3501   -0.5777   -0.8062 N   0  0  0  0  0  0  0  0  0  0  0  0
   -4.2368    0.2689   -1.6220 C   0  0  2  0  0  0  0  0  0  0  0  0
   -5.7272    0.0669   -1.2643 C   0  0  0  0  0  0  0  0  0  0  0  0
   -6.5123   -0.4996   -2.0277 O   0  0  0  0  0  0  0  0  0  0  0  0
   -6.1555    0.5283   -0.0396 N   0  0  0  0  0  0  0  0  0  0  0  0
   -5.3600    1.1623    1.0018 C   0  0  0  0  0  0  0  0  0  0  0  0
   -6.3617    1.5818    2.0728 C   0  0  0  0  0  0  0  0  0  0  0  0
   -7.5859    0.7050    1.8116 C   0  0  0  0  0  0  0  0  0  0  0  0
   -7.5736    0.5407    0.2956 C   0  0  1  0  0  0  0  0  0  0  0  0
   -8.2667    1.7439   -0.3877 C   0  0  0  0  0  0  0  0  0  0  0  0
   -7.6588    2.7524   -0.7447 O   0  0  0  0  0  0  0  0  0  0  0  0
   -9.6394    1.6306   -0.4970 N   0  0  0  0  0  0  0  0  0  0  0  0
  -10.3981    2.6423   -1.2529 C   0  0  1  0  0  0  0  0  0  0  0  0
  -10.4168    2.3475   -2.7663 C   0  0  0  0  0  0  0  0  0  0  0  0
  -10.9975    0.9878   -3.1003 C   0  0  0  0  0  0  0  0  0  0  0  0
  -12.3789    0.8200   -3.2459 C   0  0  0  0  0  0  0  0  0  0  0  0
  -12.9165   -0.4484   -3.4765 C   0  0  0  0  0  0  0  0  0  0  0  0
  -12.0849   -1.5743   -3.5659 C   0  0  0  0  0  0  0  0  0  0  0  0
  -12.6122   -2.8581   -3.7791 C   0  0  0  0  0  0  0  0  0  0  0  0
  -11.7701   -3.9682   -3.8644 C   0  0  0  0  0  0  0  0  0  0  0  0
  -10.3924   -3.8077   -3.7387 C   0  0  0  0  0  0  0  0  0  0  0  0
   -9.8541   -2.5372   -3.5256 C   0  0  0  0  0  0  0  0  0  0  0  0
  -10.6871   -1.4122   -3.4359 C   0  0  0  0  0  0  0  0  0  0  0  0
  -10.1578   -0.1316   -3.2126 C   0  0  0  0  0  0  0  0  0  0  0  0
  -11.8320    2.8261   -0.7161 C   0  0  0  0  0  0  0  0  0  0  0  0
  -12.6128    3.6411   -1.2019 O   0  0  0  0  0  0  0  0  0  0  0  0
  -12.1631    1.9921    0.3298 N   0  0  0  0  0  0  0  0  0  0  0  0
  -13.4161    2.1412    1.0683 C   0  0  1  0  0  0  0  0  0  0  0  0
  -14.1700    0.8039    1.0784 C   0  0  0  0  0  0  0  0  0  0  0  0
  -15.3660    0.6997    2.0258 C   0  0  0  0  0  0  0  0  0  0  0  0
  -16.4617    1.7095    1.7717 C   0  0  0  0  0  0  0  0  0  0  0  0
  -17.5725    1.5394    2.5449 N   0  0  0  0  0  0  0  0  0  0  0  0
  -16.3844    2.6362    0.9735 O   0  0  0  0  0  0  0  0  0  0  0  0
  -13.0159    2.5870    2.4823 C   0  0  0  0  0  0  0  0  0  0  0  0
  -13.8783    3.4450    3.1005 N   0  0  0  0  0  0  0  0  0  0  0  0
  -12.0188    2.1580    3.0610 O   0  0  0  0  0  0  0  0  0  0  0  0
   -3.9950    0.0734   -3.1488 C   0  0  2  0  0  0  0  0  0  0  0  0
   -4.0189   -1.3899   -3.5968 C   0  0  0  0  0  0  0  0  0  0  0  0
   -2.7103    0.5754   -3.5328 O   0  0  0  0  0  0  0  0  0  0  0  0
   -2.4925    2.1596   -3.5777 P   0  0  0  0  0  0  0  0  0  0  0  0
   -3.6043    3.0266   -3.1010 O   0  0  0  0  0  0  0  0  0  0  0  0
   -2.0466    2.4324   -5.0846 O   0  0  0  0  0  0  0  0  0  0  0  0
   -1.1114    2.3454   -2.8052 O   0  0  0  0  0  0  0  0  0  0  0  0
   10.3494    2.3039    4.7778 H   0  0  0  0  0  0  0  0  0  0  0  0
    8.6869    2.0717    5.3885 H   0  0  0  0  0  0  0  0  0  0  0  0
    9.2474    3.6967    4.9557 H   0  0  0  0  0  0  0  0  0  0  0  0
    7.9843    0.6709    3.7983 H   0  0  0  0  0  0  0  0  0  0  0  0
    8.1686    1.5544    0.9501 H   0  0  0  0  0  0  0  0  0  0  0  0
    7.3419   -1.1953    2.0278 H   0  0  0  0  0  0  0  0  0  0  0  0
    7.4351   -0.7355    0.3451 H   0  0  0  0  0  0  0  0  0  0  0  0
    9.2695   -2.1763    1.0855 H   0  0  0  0  0  0  0  0  0  0  0  0
    9.8112   -1.0125    2.2719 H   0  0  0  0  0  0  0  0  0  0  0  0
    9.6677   -0.2671   -0.6995 H   0  0  0  0  0  0  0  0  0  0  0  0
   10.9606   -1.2747   -0.0901 H   0  0  0  0  0  0  0  0  0  0  0  0
   11.4743    0.5702    1.6439 H   0  0  0  0  0  0  0  0  0  0  0  0
   10.3808    1.6129    0.7144 H   0  0  0  0  0  0  0  0  0  0  0  0
   11.8816    1.7106   -1.0293 H   0  0  0  0  0  0  0  0  0  0  0  0
   13.8137    0.5334   -2.2947 H   0  0  0  0  0  0  0  0  0  0  0  0
   14.2646    1.9803   -1.3696 H   0  0  0  0  0  0  0  0  0  0  0  0
   15.6268   -0.7580   -1.1007 H   0  0  0  0  0  0  0  0  0  0  0  0
   16.0579    0.7051   -0.2241 H   0  0  0  0  0  0  0  0  0  0  0  0
   16.1378    0.3286   -3.2661 H   0  0  0  0  0  0  0  0  0  0  0  0
   16.5392    1.8351   -2.4619 H   0  0  0  0  0  0  0  0  0  0  0  0
   18.5084    0.4051   -3.1574 H   0  0  0  0  0  0  0  0  0  0  0  0
   17.9700   -0.8475   -2.0544 H   0  0  0  0  0  0  0  0  0  0  0  0
   18.2644    0.7902   -0.1196 H   0  0  0  0  0  0  0  0  0  0  0  0
   21.4239    2.7312   -1.8607 H   0  0  0  0  0  0  0  0  0  0  0  0
   21.1506    3.4457   -0.2698 H   0  0  0  0  0  0  0  0  0  0  0  0
   21.0699    1.3276    0.8436 H   0  0  0  0  0  0  0  0  0  0  0  0
   23.3414    1.0754   -0.3725 H   0  0  0  0  0  0  0  0  0  0  0  0
   20.6597   -0.9996   -2.6019 H   0  0  0  0  0  0  0  0  0  0  0  0
   20.0944   -0.6407   -0.1975 H   0  0  0  0  0  0  0  0  0  0  0  0
    6.2186    1.8463   -0.1278 H   0  0  0  0  0  0  0  0  0  0  0  0
    3.7162    1.7351    1.5158 H   0  0  0  0  0  0  0  0  0  0  0  0
    2.7909    3.3895   -0.1192 H   0  0  0  0  0  0  0  0  0  0  0  0
    4.3690    3.5137   -0.9064 H   0  0  0  0  0  0  0  0  0  0  0  0
    4.1744    4.0696    0.7598 H   0  0  0  0  0  0  0  0  0  0  0  0
    2.8256   -0.1950    1.0019 H   0  0  0  0  0  0  0  0  0  0  0  0
    2.5231   -0.9872   -1.8558 H   0  0  0  0  0  0  0  0  0  0  0  0
    3.8346   -2.7014    0.3293 H   0  0  0  0  0  0  0  0  0  0  0  0
    4.7024   -1.9159   -0.9951 H   0  0  0  0  0  0  0  0  0  0  0  0
    3.5281   -3.1960   -1.3429 H   0  0  0  0  0  0  0  0  0  0  0  0
    0.4339    0.0046   -0.6419 H   0  0  0  0  0  0  0  0  0  0  0  0
   -1.3481   -2.2450   -0.5552 H   0  0  0  0  0  0  0  0  0  0  0  0
   -0.4263   -1.9780    1.9457 H   0  0  0  0  0  0  0  0  0  0  0  0
   -1.3597   -0.5014    1.9821 H   0  0  0  0  0  0  0  0  0  0  0  0
   -1.8875   -4.0955    0.8367 H   0  0  0  0  0  0  0  0  0  0  0  0
   -3.7812   -5.4574    1.5745 H   0  0  0  0  0  0  0  0  0  0  0  0
   -7.3597   -3.4389    2.7419 H   0  0  0  0  0  0  0  0  0  0  0  0
   -9.1578   -4.8934    3.6017 H   0  0  0  0  0  0  0  0  0  0  0  0
   -8.6090   -7.0624    4.6755 H   0  0  0  0  0  0  0  0  0  0  0  0
   -6.2400   -7.7720    4.8897 H   0  0  0  0  0  0  0  0  0  0  0  0
   -4.4307   -6.3287    4.0482 H   0  0  0  0  0  0  0  0  0  0  0  0
   -5.2444   -2.1619    3.9343 H   0  0  0  0  0  0  0  0  0  0  0  0
   -3.3686   -0.7835    3.1752 H   0  0  0  0  0  0  0  0  0  0  0  0
   -3.6204   -1.5501   -0.6869 H   0  0  0  0  0  0  0  0  0  0  0  0
   -3.9963    1.3058   -1.3727 H   0  0  0  0  0  0  0  0  0  0  0  0
   -4.6508    0.4267    1.3864 H   0  0  0  0  0  0  0  0  0  0  0  0
   -4.8113    2.0168    0.5995 H   0  0  0  0  0  0  0  0  0  0  0  0
   -6.6254    2.6389    1.9464 H   0  0  0  0  0  0  0  0  0  0  0  0
   -5.9616    1.4605    3.0846 H   0  0  0  0  0  0  0  0  0  0  0  0
   -7.4417   -0.2686    2.2951 H   0  0  0  0  0  0  0  0  0  0  0  0
   -8.5034    1.1533    2.2054 H   0  0  0  0  0  0  0  0  0  0  0  0
   -8.0561   -0.3882   -0.0296 H   0  0  0  0  0  0  0  0  0  0  0  0
  -10.0282    0.6936   -0.5100 H   0  0  0  0  0  0  0  0  0  0  0  0
   -9.9075    3.6112   -1.0965 H   0  0  0  0  0  0  0  0  0  0  0  0
  -10.9938    3.1172   -3.2973 H   0  0  0  0  0  0  0  0  0  0  0  0
   -9.3970    2.4061   -3.1681 H   0  0  0  0  0  0  0  0  0  0  0  0
  -13.0520    1.6742   -3.1721 H   0  0  0  0  0  0  0  0  0  0  0  0
  -13.9946   -0.5480   -3.5805 H   0  0  0  0  0  0  0  0  0  0  0  0
  -13.6857   -3.0017   -3.8832 H   0  0  0  0  0  0  0  0  0  0  0  0
  -12.1909   -4.9564   -4.0314 H   0  0  0  0  0  0  0  0  0  0  0  0
   -9.7363   -4.6700   -3.8068 H   0  0  0  0  0  0  0  0  0  0  0  0
   -8.7741   -2.4294   -3.4316 H   0  0  0  0  0  0  0  0  0  0  0  0
   -9.0795   -0.0063   -3.1125 H   0  0  0  0  0  0  0  0  0  0  0  0
  -11.3762    1.6348    0.8664 H   0  0  0  0  0  0  0  0  0  0  0  0
  -14.0151    2.9250    0.5994 H   0  0  0  0  0  0  0  0  0  0  0  0
  -13.4727   -0.0027    1.3455 H   0  0  0  0  0  0  0  0  0  0  0  0
  -14.5012    0.5853    0.0545 H   0  0  0  0  0  0  0  0  0  0  0  0
  -15.0422    0.7975    3.0683 H   0  0  0  0  0  0  0  0  0  0  0  0
  -15.8053   -0.3017    1.9201 H   0  0  0  0  0  0  0  0  0  0  0  0
  -18.3647    2.1365    2.3404 H   0  0  0  0  0  0  0  0  0  0  0  0
  -17.7544    0.6684    3.0252 H   0  0  0  0  0  0  0  0  0  0  0  0
  -13.5719    3.8399    3.9812 H   0  0  0  0  0  0  0  0  0  0  0  0
  -14.5305    3.9948    2.5479 H   0  0  0  0  0  0  0  0  0  0  0  0
   -4.7570    0.6182   -3.7206 H   0  0  0  0  0  0  0  0  0  0  0  0
   -3.2043   -1.9623   -3.1404 H   0  0  0  0  0  0  0  0  0  0  0  0
   -4.9649   -1.8851   -3.3676 H   0  0  0  0  0  0  0  0  0  0  0  0
   -3.8590   -1.4505   -4.6795 H   0  0  0  0  0  0  0  0  0  0  0  0
   -1.8971    3.3834   -5.2157 H   0  0  0  0  0  0  0  0  0  0  0  0
   -1.2216    2.0318   -1.8777 H   0  0  0  0  0  0  0  0  0  0  0  0
  1  2  1  0
  2  3  2  0
  2  4  1  0
  4  5  1  0
  5  6  1  0
  6  7  1  0
  7  8  1  0
  8  9  1  0
  9 10  1  0
 10 11  1  0
 11 12  2  0
 11 13  1  0
 13 14  1  0
 14 15  1  0
 15 16  1  0
 16 17  1  0
 17 18  1  0
 18 19  1  0
 19 20  1  0
 20 21  1  0
 21 22  1  0
 22 23  2  0
 22 24  1  0
 24 25  1  0
  5 26  1  0
 26 27  2  0
 26 28  1  0
 28 29  1  0
 29 30  1  0
 29 31  1  0
 31 32  2  0
 31 33  1  0
 33 34  1  0
 34 35  1  0
 34 36  1  0
 36 37  2  0
 36 38  1  0
 38 39  1  0
 39 40  1  0
 40 41  1  0
 41 42  1  0
 42 43  2  0
 43 44  1  0
 44 45  1  0
 45 46  2  0
 46 47  1  0
 47 48  2  0
 48 49  1  0
 49 50  2  0
 44 51  2  0
 51 52  1  0
 39 53  1  0
 53 54  2  0
 53 55  1  0
 55 56  1  0
 56 57  1  0
 57 58  2  0
 57 59  1  0
 59 60  1  0
 60 61  1  0
 61 62  1  0
 62 63  1  0
 63 64  1  0
 64 65  2  0
 64 66  1  0
 66 67  1  0
 67 68  1  0
 68 69  1  0
 69 70  1  0
 70 71  2  0
 71 72  1  0
 72 73  2  0
 73 74  1  0
 74 75  2  0
 75 76  1  0
 76 77  2  0
 77 78  1  0
 67 79  1  0
 79 80  2  0
 79 81  1  0
 81 82  1  0
 82 83  1  0
 83 84  1  0
 84 85  1  0
 85 86  1  0
 85 87  2  0
 82 88  1  0
 88 89  1  0
 88 90  2  0
 56 91  1  0
 91 92  1  0
 91 93  1  0
 93 94  1  0
 94 95  2  0
 94 96  1  0
 94 97  1  0
 25 17  1  0
 52 41  2  0
 63 59  1  0
 78 69  2  0
 25 20  1  0
 50 45  1  0
 77 72  1  0
  1 98  1  0
  1 99  1  0
  1100  1  0
  4101  1  0
  5102  1  6
  6103  1  0
  6104  1  0
  7105  1  0
  7106  1  0
  8107  1  0
  8108  1  0
  9109  1  0
  9110  1  0
 10111  1  0
 13112  1  0
 13113  1  0
 14114  1  0
 14115  1  0
 15116  1  0
 15117  1  0
 16118  1  0
 16119  1  0
 17120  1  1
 19121  1  0
 19122  1  0
 20123  1  1
 21124  1  0
 24125  1  0
 25126  1  1
 28127  1  0
 29128  1  1
 30129  1  0
 30130  1  0
 30131  1  0
 33132  1  0
 34133  1  6
 35134  1  0
 35135  1  0
 35136  1  0
 38137  1  0
 39138  1  6
 40139  1  0
 40140  1  0
 42141  1  0
 43142  1  0
 46143  1  0
 47144  1  0
 48145  1  0
 49146  1  0
 50147  1  0
 51148  1  0
 52149  1  0
 55150  1  0
 56151  1  1
 60152  1  0
 60153  1  0
 61154  1  0
 61155  1  0
 62156  1  0
 62157  1  0
 63158  1  1
 66159  1  0
 67160  1  6
 68161  1  0
 68162  1  0
 70163  1  0
 71164  1  0
 73165  1  0
 74166  1  0
 75167  1  0
 76168  1  0
 78169  1  0
 81170  1  0
 82171  1  6
 83172  1  0
 83173  1  0
 84174  1  0
 84175  1  0
 86176  1  0
 86177  1  0
 89178  1  0
 89179  1  0
 91180  1  6
 92181  1  0
 92182  1  0
 92183  1  0
 96184  1  0
 97185  1  0
M  END
$$$$
