
     RDKit          3D

 90 93  0  0  0  0  0  0  0  0999 V2000
    0.4533    0.5176    0.4158 O   0  0  0  0  0  0  0  0  0  0  0  0
    0.3899    0.4809   -0.8056 C   0  0  0  0  0  0  0  0  0  0  0  0
    1.3851    0.0413   -1.6325 O   0  0  0  0  0  0  0  0  0  0  0  0
    2.6292   -0.3552   -1.0150 C   0  0  0  0  0  0  0  0  0  0  0  0
    3.5982    0.8300   -1.1594 C   0  0  0  0  0  0  0  0  0  0  0  0
    4.9048    0.6459   -0.3809 C   0  0  0  0  0  0  0  0  0  0  0  0
    5.8773    1.8184   -0.5632 C   0  0  0  0  0  0  0  0  0  0  0  0
    5.3788    3.1270   -0.0012 C   0  0  0  0  0  0  0  0  0  0  0  0
    5.0718    4.1956   -0.8553 C   0  0  0  0  0  0  0  0  0  0  0  0
    4.6050    5.4054   -0.3369 C   0  0  0  0  0  0  0  0  0  0  0  0
    4.4438    5.5593    1.0382 C   0  0  0  0  0  0  0  0  0  0  0  0
    4.7495    4.5043    1.8970 C   0  0  0  0  0  0  0  0  0  0  0  0
    5.2164    3.2946    1.3809 C   0  0  0  0  0  0  0  0  0  0  0  0
    3.1234   -1.6042   -1.7592 C   0  0  0  0  0  0  0  0  0  0  0  0
    2.2114   -2.8311   -1.5986 C   0  0  0  0  0  0  0  0  0  0  0  0
    2.0493   -3.3409   -0.1598 C   0  0  0  0  0  0  0  0  0  0  0  0
    3.3523   -3.6567    0.5358 C   0  0  0  0  0  0  0  0  0  0  0  0
    3.7558   -2.9176    1.6568 C   0  0  0  0  0  0  0  0  0  0  0  0
    4.9640   -3.2008    2.2950 C   0  0  0  0  0  0  0  0  0  0  0  0
    5.7765   -4.2318    1.8248 C   0  0  0  0  0  0  0  0  0  0  0  0
    5.3818   -4.9778    0.7158 C   0  0  0  0  0  0  0  0  0  0  0  0
    4.1750   -4.6935    0.0748 C   0  0  0  0  0  0  0  0  0  0  0  0
   -0.7892    0.9837   -1.6576 C   0  0  2  0  0  0  0  0  0  0  0  0
   -0.4895    2.3603   -2.2705 C   0  0  0  0  0  0  0  0  0  0  0  0
   -0.9357    3.5608   -1.4338 C   0  0  0  0  0  0  0  0  0  0  0  0
   -1.3415    3.1818   -0.0216 C   0  0  0  0  0  0  0  0  0  0  0  0
   -2.3810    2.0694   -0.0359 C   0  0  0  0  0  0  0  0  0  0  0  0
   -2.0676    0.9524   -0.9281 N   0  0  0  0  0  0  0  0  0  0  0  0
   -2.8167   -0.2102   -1.0006 C   0  0  0  0  0  0  0  0  0  0  0  0
   -2.4376   -1.2083   -1.6153 O   0  0  0  0  0  0  0  0  0  0  0  0
   -4.0467   -0.1545   -0.3981 N   0  0  0  0  0  0  0  0  0  0  0  0
   -4.9440   -1.3162   -0.3451 C   0  0  1  0  0  0  0  0  0  0  0  0
   -4.6775   -2.1797    0.9059 C   0  0  0  0  0  0  0  0  0  0  0  0
   -3.2978   -2.4584    1.0754 O   0  0  0  0  0  0  0  0  0  0  0  0
   -2.6265   -3.7264    0.3749 P   0  0  0  0  0  0  0  0  0  0  0  0
   -1.1757   -3.9371    0.6333 O   0  0  0  0  0  0  0  0  0  0  0  0
   -3.0256   -3.6544   -1.1648 O   0  0  0  0  0  0  0  0  0  0  0  0
   -3.5068   -4.9572    0.8983 O   0  0  0  0  0  0  0  0  0  0  0  0
   -6.4270   -0.9034   -0.4718 C   0  0  0  0  0  0  0  0  0  0  0  0
   -6.9288    0.0620    0.5782 C   0  0  0  0  0  0  0  0  0  0  0  0
   -7.5723   -0.4043    1.7323 C   0  0  0  0  0  0  0  0  0  0  0  0
   -8.0231    0.4918    2.7021 C   0  0  0  0  0  0  0  0  0  0  0  0
   -7.8401    1.8617    2.5262 C   0  0  0  0  0  0  0  0  0  0  0  0
   -7.2098    2.3383    1.3785 C   0  0  0  0  0  0  0  0  0  0  0  0
   -6.7596    1.4437    0.4082 C   0  0  0  0  0  0  0  0  0  0  0  0
    2.4902   -0.5806    0.0468 H   0  0  0  0  0  0  0  0  0  0  0  0
    3.0868    1.7379   -0.8155 H   0  0  0  0  0  0  0  0  0  0  0  0
    3.8134    1.0001   -2.2226 H   0  0  0  0  0  0  0  0  0  0  0  0
    4.6807    0.4977    0.6825 H   0  0  0  0  0  0  0  0  0  0  0  0
    5.4172   -0.2590   -0.7247 H   0  0  0  0  0  0  0  0  0  0  0  0
    6.1150    1.9306   -1.6292 H   0  0  0  0  0  0  0  0  0  0  0  0
    6.8268    1.5768   -0.0683 H   0  0  0  0  0  0  0  0  0  0  0  0
    5.1919    4.0923   -1.9317 H   0  0  0  0  0  0  0  0  0  0  0  0
    4.3673    6.2276   -1.0070 H   0  0  0  0  0  0  0  0  0  0  0  0
    4.0806    6.5008    1.4420 H   0  0  0  0  0  0  0  0  0  0  0  0
    4.6221    4.6225    2.9696 H   0  0  0  0  0  0  0  0  0  0  0  0
    5.4502    2.4808    2.0643 H   0  0  0  0  0  0  0  0  0  0  0  0
    4.1374   -1.8692   -1.4445 H   0  0  0  0  0  0  0  0  0  0  0  0
    3.1763   -1.3805   -2.8328 H   0  0  0  0  0  0  0  0  0  0  0  0
    1.2164   -2.6060   -2.0036 H   0  0  0  0  0  0  0  0  0  0  0  0
    2.6193   -3.6383   -2.2216 H   0  0  0  0  0  0  0  0  0  0  0  0
    1.4718   -2.6162    0.4265 H   0  0  0  0  0  0  0  0  0  0  0  0
    1.4439   -4.2563   -0.1744 H   0  0  0  0  0  0  0  0  0  0  0  0
    3.1266   -2.1169    2.0407 H   0  0  0  0  0  0  0  0  0  0  0  0
    5.2653   -2.6232    3.1644 H   0  0  0  0  0  0  0  0  0  0  0  0
    6.7130   -4.4578    2.3264 H   0  0  0  0  0  0  0  0  0  0  0  0
    6.0097   -5.7871    0.3517 H   0  0  0  0  0  0  0  0  0  0  0  0
    3.8741   -5.2879   -0.7850 H   0  0  0  0  0  0  0  0  0  0  0  0
   -0.8627    0.2709   -2.4904 H   0  0  0  0  0  0  0  0  0  0  0  0
    0.5807    2.4552   -2.4933 H   0  0  0  0  0  0  0  0  0  0  0  0
   -0.9997    2.4282   -3.2403 H   0  0  0  0  0  0  0  0  0  0  0  0
   -0.1374    4.3120   -1.4039 H   0  0  0  0  0  0  0  0  0  0  0  0
   -1.7878    4.0433   -1.9318 H   0  0  0  0  0  0  0  0  0  0  0  0
   -0.4569    2.8725    0.5439 H   0  0  0  0  0  0  0  0  0  0  0  0
   -1.7461    4.0559    0.5000 H   0  0  0  0  0  0  0  0  0  0  0  0
   -2.5080    1.6790    0.9792 H   0  0  0  0  0  0  0  0  0  0  0  0
   -3.3472    2.4752   -0.3545 H   0  0  0  0  0  0  0  0  0  0  0  0
   -4.1327    0.4754    0.3829 H   0  0  0  0  0  0  0  0  0  0  0  0
   -4.7267   -1.9241   -1.2280 H   0  0  0  0  0  0  0  0  0  0  0  0
   -5.2557   -3.1076    0.8673 H   0  0  0  0  0  0  0  0  0  0  0  0
   -4.9838   -1.6438    1.8085 H   0  0  0  0  0  0  0  0  0  0  0  0
   -2.6208   -2.8448   -1.5641 H   0  0  0  0  0  0  0  0  0  0  0  0
   -2.9335   -5.7435    0.9559 H   0  0  0  0  0  0  0  0  0  0  0  0
   -6.5841   -0.4431   -1.4578 H   0  0  0  0  0  0  0  0  0  0  0  0
   -7.0576   -1.8031   -0.4678 H   0  0  0  0  0  0  0  0  0  0  0  0
   -7.7333   -1.4696    1.8828 H   0  0  0  0  0  0  0  0  0  0  0  0
   -8.5234    0.1203    3.5934 H   0  0  0  0  0  0  0  0  0  0  0  0
   -8.1952    2.5580    3.2806 H   0  0  0  0  0  0  0  0  0  0  0  0
   -7.0777    3.4075    1.2349 H   0  0  0  0  0  0  0  0  0  0  0  0
   -6.2784    1.8315   -0.4887 H   0  0  0  0  0  0  0  0  0  0  0  0
  1  2  2  0
  2  3  1  0
  3  4  1  0
  4  5  1  0
  5  6  1  0
  6  7  1  0
  7  8  1  0
  8  9  2  0
  9 10  1  0
 10 11  2  0
 11 12  1  0
 12 13  2  0
  4 14  1  0
 14 15  1  0
 15 16  1  0
 16 17  1  0
 17 18  2  0
 18 19  1  0
 19 20  2  0
 20 21  1  0
 21 22  2  0
  2 23  1  0
 23 24  1  0
 24 25  1  0
 25 26  1  0
 26 27  1  0
 27 28  1  0
 28 29  1  0
 29 30  2  0
 29 31  1  0
 31 32  1  0
 32 33  1  0
 33 34  1  0
 34 35  1  0
 35 36  2  0
 35 37  1  0
 35 38  1  0
 32 39  1  0
 39 40  1  0
 40 41  2  0
 41 42  1  0
 42 43  2  0
 43 44  1  0
 44 45  2  0
 13  8  1  0
 22 17  1  0
 28 23  1  0
 45 40  1  0
  4 46  1  0
  5 47  1  0
  5 48  1  0
  6 49  1  0
  6 50  1  0
  7 51  1  0
  7 52  1  0
  9 53  1  0
 10 54  1  0
 11 55  1  0
 12 56  1  0
 13 57  1  0
 14 58  1  0
 14 59  1  0
 15 60  1  0
 15 61  1  0
 16 62  1  0
 16 63  1  0
 18 64  1  0
 19 65  1  0
 20 66  1  0
 21 67  1  0
 22 68  1  0
 23 69  1  6
 24 70  1  0
 24 71  1  0
 25 72  1  0
 25 73  1  0
 26 74  1  0
 26 75  1  0
 27 76  1  0
 27 77  1  0
 31 78  1  0
 32 79  1  6
 33 80  1  0
 33 81  1  0
 37 82  1  0
 38 83  1  0
 39 84  1  0
 39 85  1  0
 41 86  1  0
 42 87  1  0
 43 88  1  0
 44 89  1  0
 45 90  1  0
M  END
$$$$
