
     RDKit          3D

 44 45  0  0  0  0  0  0  0  0999 V2000
   -0.2879   -2.0829    2.0738 O   0  0  0  0  0  0  0  0  0  0  0  0
   -0.4151   -1.3678    1.0818 C   0  0  0  0  0  0  0  0  0  0  0  0
    0.5436   -1.3457    0.0912 N   0  0  0  0  0  0  0  0  0  0  0  0
    1.8700   -1.9699    0.2189 C   0  0  1  0  0  0  0  0  0  0  0  0
    1.7787   -3.5116    0.3006 C   0  0  0  0  0  0  0  0  0  0  0  0
    1.5068   -3.9600    1.6255 O   0  0  0  0  0  0  0  0  0  0  0  0
    2.7633   -1.5781   -0.9791 C   0  0  0  0  0  0  0  0  0  0  0  0
    3.0059   -0.0883   -1.0892 C   0  0  0  0  0  0  0  0  0  0  0  0
    3.7789    0.5820   -0.1279 C   0  0  0  0  0  0  0  0  0  0  0  0
    3.9897    1.9606   -0.2182 C   0  0  0  0  0  0  0  0  0  0  0  0
    3.4327    2.6828   -1.2719 C   0  0  0  0  0  0  0  0  0  0  0  0
    2.6735    2.0195   -2.2280 C   0  0  0  0  0  0  0  0  0  0  0  0
    2.1372    2.7122   -3.2417 F   0  0  0  0  0  0  0  0  0  0  0  0
    2.4573    0.6469   -2.1493 C   0  0  0  0  0  0  0  0  0  0  0  0
   -1.5671   -0.5017    0.8733 C   0  0  0  0  0  0  0  0  0  0  0  0
   -2.6498   -0.3557    1.7179 C   0  0  0  0  0  0  0  0  0  0  0  0
   -3.6289    0.5757    1.2366 C   0  0  0  0  0  0  0  0  0  0  0  0
   -4.8588    0.9924    1.8002 C   0  0  0  0  0  0  0  0  0  0  0  0
   -5.6580    1.9292    1.1385 C   0  0  0  0  0  0  0  0  0  0  0  0
   -5.2524    2.4614   -0.0780 C   0  0  0  0  0  0  0  0  0  0  0  0
   -4.0439    2.0685   -0.6580 C   0  0  0  0  0  0  0  0  0  0  0  0
   -3.2432    1.1230    0.0114 C   0  0  0  0  0  0  0  0  0  0  0  0
   -1.7295    0.4915   -0.5085 S   0  0  0  0  0  0  0  0  0  0  0  0
   -0.4733   -1.2838   -0.6709 O   0  0  0  0  0  0  0  0  0  0  0  0
   -0.4949   -0.3065    0.6760 P   0  0  0  0  0  0  0  0  0  0  0  0
   -1.1050    1.0448   -0.0799 O   0  0  0  0  0  0  0  0  0  0  0  0
    1.0387    0.1515    0.5125 O   0  0  0  0  0  0  0  0  0  0  0  0
    0.4310   -0.6126   -0.6004 H   0  0  0  0  0  0  0  0  0  0  0  0
    2.2988   -1.5908    1.1546 H   0  0  0  0  0  0  0  0  0  0  0  0
    2.7292   -3.9729    0.0146 H   0  0  0  0  0  0  0  0  0  0  0  0
    0.9995   -3.9015   -0.3636 H   0  0  0  0  0  0  0  0  0  0  0  0
    0.7607   -3.4180    1.9673 H   0  0  0  0  0  0  0  0  0  0  0  0
    3.7405   -2.0714   -0.8975 H   0  0  0  0  0  0  0  0  0  0  0  0
    2.3122   -1.9456   -1.9106 H   0  0  0  0  0  0  0  0  0  0  0  0
    4.2240    0.0342    0.7014 H   0  0  0  0  0  0  0  0  0  0  0  0
    4.5884    2.4696    0.5336 H   0  0  0  0  0  0  0  0  0  0  0  0
    3.5871    3.7535   -1.3548 H   0  0  0  0  0  0  0  0  0  0  0  0
    1.8603    0.1684   -2.9210 H   0  0  0  0  0  0  0  0  0  0  0  0
   -2.7377   -0.8981    2.6535 H   0  0  0  0  0  0  0  0  0  0  0  0
   -5.1869    0.5825    2.7528 H   0  0  0  0  0  0  0  0  0  0  0  0
   -6.6013    2.2408    1.5815 H   0  0  0  0  0  0  0  0  0  0  0  0
   -5.8794    3.1907   -0.5860 H   0  0  0  0  0  0  0  0  0  0  0  0
   -3.7293    2.4870   -1.6093 H   0  0  0  0  0  0  0  0  0  0  0  0
    1.0345    0.3940   -0.4377 H   0  0  0  0  0  0  0  0  0  0  0  0
  1  2  2  0
  2  3  1  0
  3  4  1  0
  4  5  1  0
  5  6  1  0
  4  7  1  0
  7  8  1  0
  8  9  2  0
  9 10  1  0
 10 11  2  0
 11 12  1  0
 12 13  1  0
 12 14  2  0
  2 15  1  0
 15 16  2  0
 16 17  1  0
 17 18  2  0
 18 19  1  0
 19 20  2  0
 20 21  1  0
 21 22  2  0
 22 23  1  0
 24 25  2  0
 25 26  2  0
 25 27  1  0
 14  8  1  0
 23 15  1  0
 22 17  1  0
  3 28  1  0
  4 29  1  1
  5 30  1  0
  5 31  1  0
  6 32  1  0
  7 33  1  0
  7 34  1  0
  9 35  1  0
 10 36  1  0
 11 37  1  0
 14 38  1  0
 16 39  1  0
 18 40  1  0
 19 41  1  0
 20 42  1  0
 21 43  1  0
 27 44  1  0
M  END
$$$$
