
     RDKit          3D

181187  0  0  0  0  0  0  0  0999 V2000
    8.1917    0.0778    1.9262 C   0  0  0  0  0  0  0  0  0  0  0  0
    7.2182    1.0095    1.2547 C   0  0  0  0  0  0  0  0  0  0  0  0
    6.9474    2.1175    1.7031 O   0  0  0  0  0  0  0  0  0  0  0  0
    6.6274    0.4880    0.1278 N   0  0  0  0  0  0  0  0  0  0  0  0
    5.6662    1.2568   -0.6554 C   0  0  1  0  0  0  0  0  0  0  0  0
    6.2892    2.2810   -1.6140 C   0  0  0  0  0  0  0  0  0  0  0  0
    7.2433    1.7258   -2.6833 C   0  0  0  0  0  0  0  0  0  0  0  0
    8.6661    1.3880   -2.2259 C   0  0  0  0  0  0  0  0  0  0  0  0
    9.3470    2.5383   -1.4859 C   0  0  0  0  0  0  0  0  0  0  0  0
   10.7804    2.3879   -1.3511 N   0  0  0  0  0  0  0  0  0  0  0  0
   11.3424    1.4217   -0.5402 C   0  0  0  0  0  0  0  0  0  0  0  0
   10.7210    0.4850   -0.0566 O   0  0  0  0  0  0  0  0  0  0  0  0
   12.8211    1.6719   -0.3095 C   0  0  0  0  0  0  0  0  0  0  0  0
   13.4879    0.6059    0.5552 C   0  0  0  0  0  0  0  0  0  0  0  0
   14.9176    1.0265    0.9008 C   0  0  0  0  0  0  0  0  0  0  0  0
   15.6564    0.0536    1.8285 C   0  0  0  0  0  0  0  0  0  0  0  0
   15.8661   -1.3743    1.2905 C   0  0  2  0  0  0  0  0  0  0  0  0
   16.4928   -2.4176    2.6512 S   0  0  0  0  0  0  0  0  0  0  0  0
   18.2230   -1.9454    2.3794 C   0  0  0  0  0  0  0  0  0  0  0  0
   18.3379   -1.6601    0.8865 C   0  0  2  0  0  0  0  0  0  0  0  0
   18.9089   -0.3732    0.5581 N   0  0  0  0  0  0  0  0  0  0  0  0
   18.2527    0.1698   -0.5347 C   0  0  0  0  0  0  0  0  0  0  0  0
   18.6303    1.1219   -1.1893 O   0  0  0  0  0  0  0  0  0  0  0  0
   17.1069   -0.5633   -0.7578 N   0  0  0  0  0  0  0  0  0  0  0  0
   16.9468   -1.6087    0.2210 C   0  0  2  0  0  0  0  0  0  0  0  0
    4.6527    0.3265   -1.3545 C   0  0  0  0  0  0  0  0  0  0  0  0
    4.0655    0.6222   -2.3922 O   0  0  0  0  0  0  0  0  0  0  0  0
    4.2900   -0.7712   -0.5943 N   0  0  0  0  0  0  0  0  0  0  0  0
    3.1117   -1.5834   -0.9249 C   0  0  1  0  0  0  0  0  0  0  0  0
    3.2115   -2.9523   -0.2645 C   0  0  0  0  0  0  0  0  0  0  0  0
    1.8441   -0.8274   -0.4607 C   0  0  0  0  0  0  0  0  0  0  0  0
    1.0831   -1.2282    0.4151 O   0  0  0  0  0  0  0  0  0  0  0  0
    1.6233    0.3591   -1.1251 N   0  0  0  0  0  0  0  0  0  0  0  0
    0.6364    1.3487   -0.7121 C   0  0  1  0  0  0  0  0  0  0  0  0
    1.0963    2.7413   -1.1267 C   0  0  0  0  0  0  0  0  0  0  0  0
   -0.7723    1.0456   -1.2686 C   0  0  0  0  0  0  0  0  0  0  0  0
   -1.4974    1.9091   -1.7584 O   0  0  0  0  0  0  0  0  0  0  0  0
   -1.2121   -0.2376   -1.0510 N   0  0  0  0  0  0  0  0  0  0  0  0
   -2.5896   -0.6346   -1.2880 C   0  0  1  0  0  0  0  0  0  0  0  0
   -2.7916   -1.4889   -2.5461 C   0  0  0  0  0  0  0  0  0  0  0  0
   -1.9598   -2.7481   -2.6061 C   0  0  0  0  0  0  0  0  0  0  0  0
   -2.3691   -3.9613   -2.0868 C   0  0  0  0  0  0  0  0  0  0  0  0
   -1.2378   -5.2121   -2.3398 S   0  0  0  0  0  0  0  0  0  0  0  0
   -0.1455   -4.1543   -3.1430 C   0  0  0  0  0  0  0  0  0  0  0  0
    1.1116   -4.4965   -3.6760 C   0  0  0  0  0  0  0  0  0  0  0  0
    1.8727   -3.5120   -4.3118 C   0  0  0  0  0  0  0  0  0  0  0  0
    1.3900   -2.2152   -4.4172 C   0  0  0  0  0  0  0  0  0  0  0  0
    0.1417   -1.8791   -3.8840 C   0  0  0  0  0  0  0  0  0  0  0  0
   -0.6528   -2.8540   -3.2251 C   0  0  0  0  0  0  0  0  0  0  0  0
   -3.1278   -1.3371   -0.0311 C   0  0  0  0  0  0  0  0  0  0  0  0
   -2.4453   -2.0723    0.6789 O   0  0  0  0  0  0  0  0  0  0  0  0
   -4.4565   -1.0767    0.2133 N   0  0  0  0  0  0  0  0  0  0  0  0
   -5.1751   -1.6541    1.3565 C   0  0  1  0  0  0  0  0  0  0  0  0
   -6.3151   -0.7024    1.7783 C   0  0  0  0  0  0  0  0  0  0  0  0
   -7.4528   -1.1127    1.9989 O   0  0  0  0  0  0  0  0  0  0  0  0
   -6.0148    0.6563    1.9023 N   0  0  0  0  0  0  0  0  0  0  0  0
   -4.6776    1.1679    2.2314 C   0  0  0  0  0  0  0  0  0  0  0  0
   -4.7055    1.9816    3.5211 C   0  0  0  0  0  0  0  0  0  0  0  0
   -5.7266    3.1214    3.4893 C   0  0  0  0  0  0  0  0  0  0  0  0
   -6.6862    3.0180    2.3070 C   0  0  0  0  0  0  0  0  0  0  0  0
   -7.1524    1.5713    2.1171 C   0  0  1  0  0  0  0  0  0  0  0  0
   -8.1084    1.5224    0.9006 C   0  0  0  0  0  0  0  0  0  0  0  0
   -7.7545    1.7576   -0.2561 O   0  0  0  0  0  0  0  0  0  0  0  0
   -9.4026    1.1643    1.2099 N   0  0  0  0  0  0  0  0  0  0  0  0
  -10.3878    0.8011    0.1794 C   0  0  1  0  0  0  0  0  0  0  0  0
  -11.4338   -0.1959    0.7255 C   0  0  0  0  0  0  0  0  0  0  0  0
  -10.8656   -1.5510    1.0889 C   0  0  0  0  0  0  0  0  0  0  0  0
  -10.6749   -1.9162    2.4248 C   0  0  0  0  0  0  0  0  0  0  0  0
  -10.1370   -3.1625    2.7494 C   0  0  0  0  0  0  0  0  0  0  0  0
   -9.7994   -4.0820    1.7451 C   0  0  0  0  0  0  0  0  0  0  0  0
   -9.2536   -5.3393    2.0555 C   0  0  0  0  0  0  0  0  0  0  0  0
   -8.9294   -6.2467    1.0471 C   0  0  0  0  0  0  0  0  0  0  0  0
   -9.1625   -5.9157   -0.2861 C   0  0  0  0  0  0  0  0  0  0  0  0
   -9.7035   -4.6688   -0.6103 C   0  0  0  0  0  0  0  0  0  0  0  0
  -10.0148   -3.7357    0.3931 C   0  0  0  0  0  0  0  0  0  0  0  0
  -10.5371   -2.4693    0.0799 C   0  0  0  0  0  0  0  0  0  0  0  0
  -11.1421    2.0351   -0.3821 C   0  0  0  0  0  0  0  0  0  0  0  0
  -12.2839    1.9560   -0.8572 O   0  0  0  0  0  0  0  0  0  0  0  0
  -10.4280    3.2107   -0.4506 N   0  0  0  0  0  0  0  0  0  0  0  0
  -11.0225    4.4408   -0.9741 C   0  0  1  0  0  0  0  0  0  0  0  0
  -10.4234    5.6583   -0.2550 C   0  0  0  0  0  0  0  0  0  0  0  0
  -11.2280    6.9426   -0.4799 C   0  0  0  0  0  0  0  0  0  0  0  0
  -12.5647    6.9361    0.2322 C   0  0  0  0  0  0  0  0  0  0  0  0
  -13.3909    7.9623   -0.1162 N   0  0  0  0  0  0  0  0  0  0  0  0
  -12.9021    6.1119    1.0719 O   0  0  0  0  0  0  0  0  0  0  0  0
  -10.8090    4.5007   -2.5016 C   0  0  0  0  0  0  0  0  0  0  0  0
  -11.3825    3.4784   -3.2076 N   0  0  0  0  0  0  0  0  0  0  0  0
  -10.2018    5.3935   -3.0844 O   0  0  0  0  0  0  0  0  0  0  0  0
   -5.6660   -3.0945    1.0636 C   0  0  1  0  0  0  0  0  0  0  0  0
   -6.3812   -3.2182   -0.2810 C   0  0  0  0  0  0  0  0  0  0  0  0
   -4.5434   -3.9840    1.0055 O   0  0  0  0  0  0  0  0  0  0  0  0
   -3.8777   -4.3977    2.4077 P   0  0  0  0  0  0  0  0  0  0  0  0
   -4.3349   -3.6533    3.6085 O   0  0  0  0  0  0  0  0  0  0  0  0
   -4.1691   -5.9721    2.4266 O   0  0  0  0  0  0  0  0  0  0  0  0
   -2.3200   -4.3227    2.0875 O   0  0  0  0  0  0  0  0  0  0  0  0
    8.5418   -0.7014    1.2411 H   0  0  0  0  0  0  0  0  0  0  0  0
    7.6989   -0.3939    2.7784 H   0  0  0  0  0  0  0  0  0  0  0  0
    9.0569    0.6509    2.2713 H   0  0  0  0  0  0  0  0  0  0  0  0
    7.0226   -0.3501   -0.2860 H   0  0  0  0  0  0  0  0  0  0  0  0
    5.0593    1.8330    0.0582 H   0  0  0  0  0  0  0  0  0  0  0  0
    5.4691    2.7859   -2.1458 H   0  0  0  0  0  0  0  0  0  0  0  0
    6.7846    3.0713   -1.0384 H   0  0  0  0  0  0  0  0  0  0  0  0
    6.8022    0.8459   -3.1616 H   0  0  0  0  0  0  0  0  0  0  0  0
    7.3254    2.4851   -3.4711 H   0  0  0  0  0  0  0  0  0  0  0  0
    8.6594    0.4857   -1.6056 H   0  0  0  0  0  0  0  0  0  0  0  0
    9.2569    1.1300   -3.1157 H   0  0  0  0  0  0  0  0  0  0  0  0
    8.9343    2.6526   -0.4787 H   0  0  0  0  0  0  0  0  0  0  0  0
    9.1871    3.4772   -2.0250 H   0  0  0  0  0  0  0  0  0  0  0  0
   11.3343    3.2131   -1.5275 H   0  0  0  0  0  0  0  0  0  0  0  0
   12.9159    2.6519    0.1735 H   0  0  0  0  0  0  0  0  0  0  0  0
   13.3209    1.7246   -1.2835 H   0  0  0  0  0  0  0  0  0  0  0  0
   13.4822   -0.3470    0.0173 H   0  0  0  0  0  0  0  0  0  0  0  0
   12.9179    0.4557    1.4819 H   0  0  0  0  0  0  0  0  0  0  0  0
   14.8828    1.9991    1.4085 H   0  0  0  0  0  0  0  0  0  0  0  0
   15.4835    1.1994   -0.0198 H   0  0  0  0  0  0  0  0  0  0  0  0
   15.0815    0.0075    2.7628 H   0  0  0  0  0  0  0  0  0  0  0  0
   16.6202    0.5083    2.0917 H   0  0  0  0  0  0  0  0  0  0  0  0
   14.9113   -1.7888    0.9560 H   0  0  0  0  0  0  0  0  0  0  0  0
   18.4634   -1.0686    2.9906 H   0  0  0  0  0  0  0  0  0  0  0  0
   18.8802   -2.7665    2.6816 H   0  0  0  0  0  0  0  0  0  0  0  0
   18.9681   -2.4119    0.3987 H   0  0  0  0  0  0  0  0  0  0  0  0
   19.8776   -0.1117    0.6933 H   0  0  0  0  0  0  0  0  0  0  0  0
   16.4904   -0.3605   -1.5343 H   0  0  0  0  0  0  0  0  0  0  0  0
   16.7465   -2.5458   -0.3131 H   0  0  0  0  0  0  0  0  0  0  0  0
    4.5935   -0.7595    0.3734 H   0  0  0  0  0  0  0  0  0  0  0  0
    3.0629   -1.7018   -2.0123 H   0  0  0  0  0  0  0  0  0  0  0  0
    3.2698   -2.8656    0.8243 H   0  0  0  0  0  0  0  0  0  0  0  0
    2.3375   -3.5623   -0.5049 H   0  0  0  0  0  0  0  0  0  0  0  0
    4.1059   -3.4838   -0.6054 H   0  0  0  0  0  0  0  0  0  0  0  0
    2.2586    0.5945   -1.8903 H   0  0  0  0  0  0  0  0  0  0  0  0
    0.5550    1.3154    0.3814 H   0  0  0  0  0  0  0  0  0  0  0  0
    1.1895    2.8190   -2.2143 H   0  0  0  0  0  0  0  0  0  0  0  0
    2.0749    2.9737   -0.6922 H   0  0  0  0  0  0  0  0  0  0  0  0
    0.3889    3.5071   -0.7951 H   0  0  0  0  0  0  0  0  0  0  0  0
   -0.6266   -0.8641   -0.4903 H   0  0  0  0  0  0  0  0  0  0  0  0
   -3.1838    0.2776   -1.4195 H   0  0  0  0  0  0  0  0  0  0  0  0
   -2.5706   -0.8803   -3.4302 H   0  0  0  0  0  0  0  0  0  0  0  0
   -3.8500   -1.7694   -2.6308 H   0  0  0  0  0  0  0  0  0  0  0  0
   -3.2952   -4.1839   -1.5699 H   0  0  0  0  0  0  0  0  0  0  0  0
    1.4846   -5.5151   -3.6020 H   0  0  0  0  0  0  0  0  0  0  0  0
    2.8401   -3.7642   -4.7326 H   0  0  0  0  0  0  0  0  0  0  0  0
    1.9780   -1.4521   -4.9199 H   0  0  0  0  0  0  0  0  0  0  0  0
   -0.2183   -0.8592   -3.9764 H   0  0  0  0  0  0  0  0  0  0  0  0
   -4.9761   -0.4422   -0.3841 H   0  0  0  0  0  0  0  0  0  0  0  0
   -4.4744   -1.6840    2.1946 H   0  0  0  0  0  0  0  0  0  0  0  0
   -4.3473    1.7867    1.3899 H   0  0  0  0  0  0  0  0  0  0  0  0
   -3.9605    0.3591    2.3563 H   0  0  0  0  0  0  0  0  0  0  0  0
   -3.7076    2.3864    3.7273 H   0  0  0  0  0  0  0  0  0  0  0  0
   -4.9383    1.3175    4.3635 H   0  0  0  0  0  0  0  0  0  0  0  0
   -5.2052    4.0868    3.4575 H   0  0  0  0  0  0  0  0  0  0  0  0
   -6.2951    3.1154    4.4268 H   0  0  0  0  0  0  0  0  0  0  0  0
   -6.1686    3.3726    1.4088 H   0  0  0  0  0  0  0  0  0  0  0  0
   -7.5360    3.6889    2.4562 H   0  0  0  0  0  0  0  0  0  0  0  0
   -7.6770    1.2395    3.0184 H   0  0  0  0  0  0  0  0  0  0  0  0
   -9.5335    0.7346    2.1222 H   0  0  0  0  0  0  0  0  0  0  0  0
   -9.8485    0.3540   -0.6677 H   0  0  0  0  0  0  0  0  0  0  0  0
  -12.2306   -0.3620   -0.0106 H   0  0  0  0  0  0  0  0  0  0  0  0
  -11.9284    0.2407    1.6044 H   0  0  0  0  0  0  0  0  0  0  0  0
  -10.9352   -1.2345    3.2297 H   0  0  0  0  0  0  0  0  0  0  0  0
   -9.9855   -3.4143    3.7959 H   0  0  0  0  0  0  0  0  0  0  0  0
   -9.0766   -5.6184    3.0922 H   0  0  0  0  0  0  0  0  0  0  0  0
   -8.4996   -7.2114    1.3013 H   0  0  0  0  0  0  0  0  0  0  0  0
   -8.9173   -6.6270   -1.0742 H   0  0  0  0  0  0  0  0  0  0  0  0
   -9.8721   -4.4296   -1.6578 H   0  0  0  0  0  0  0  0  0  0  0  0
  -10.6978   -2.2002   -0.9621 H   0  0  0  0  0  0  0  0  0  0  0  0
   -9.4145    3.1125   -0.4857 H   0  0  0  0  0  0  0  0  0  0  0  0
  -12.1025    4.4036   -0.7971 H   0  0  0  0  0  0  0  0  0  0  0  0
  -10.3634    5.4565    0.8249 H   0  0  0  0  0  0  0  0  0  0  0  0
   -9.3928    5.8227   -0.5904 H   0  0  0  0  0  0  0  0  0  0  0  0
  -11.3909    7.1239   -1.5475 H   0  0  0  0  0  0  0  0  0  0  0  0
  -10.6589    7.7931   -0.0807 H   0  0  0  0  0  0  0  0  0  0  0  0
  -13.1870    8.6004   -0.8761 H   0  0  0  0  0  0  0  0  0  0  0  0
  -14.3118    7.9859    0.3022 H   0  0  0  0  0  0  0  0  0  0  0  0
  -11.9718    2.7871   -2.7469 H   0  0  0  0  0  0  0  0  0  0  0  0
  -11.3237    3.4871   -4.2144 H   0  0  0  0  0  0  0  0  0  0  0  0
   -6.3458   -3.4451    1.8529 H   0  0  0  0  0  0  0  0  0  0  0  0
   -7.2881   -2.6086   -0.3162 H   0  0  0  0  0  0  0  0  0  0  0  0
   -5.7358   -2.9218   -1.1156 H   0  0  0  0  0  0  0  0  0  0  0  0
   -6.6409   -4.2634   -0.4673 H   0  0  0  0  0  0  0  0  0  0  0  0
   -3.9068   -6.3633    3.2817 H   0  0  0  0  0  0  0  0  0  0  0  0
   -2.1432   -3.5741    1.4563 H   0  0  0  0  0  0  0  0  0  0  0  0
  1  2  1  0
  2  3  2  0
  2  4  1  0
  4  5  1  0
  5  6  1  0
  6  7  1  0
  7  8  1  0
  8  9  1  0
  9 10  1  0
 10 11  1  0
 11 12  2  0
 11 13  1  0
 13 14  1  0
 14 15  1  0
 15 16  1  0
 16 17  1  0
 17 18  1  0
 18 19  1  0
 19 20  1  0
 20 21  1  0
 21 22  1  0
 22 23  2  0
 22 24  1  0
 24 25  1  0
  5 26  1  0
 26 27  2  0
 26 28  1  0
 28 29  1  0
 29 30  1  0
 29 31  1  0
 31 32  2  0
 31 33  1  0
 33 34  1  0
 34 35  1  0
 34 36  1  0
 36 37  2  0
 36 38  1  0
 38 39  1  0
 39 40  1  0
 40 41  1  0
 41 42  2  0
 42 43  1  0
 43 44  1  0
 44 45  2  0
 45 46  1  0
 46 47  2  0
 47 48  1  0
 48 49  2  0
 39 50  1  0
 50 51  2  0
 50 52  1  0
 52 53  1  0
 53 54  1  0
 54 55  2  0
 54 56  1  0
 56 57  1  0
 57 58  1  0
 58 59  1  0
 59 60  1  0
 60 61  1  0
 61 62  1  0
 62 63  2  0
 62 64  1  0
 64 65  1  0
 65 66  1  0
 66 67  1  0
 67 68  1  0
 68 69  2  0
 69 70  1  0
 70 71  2  0
 71 72  1  0
 72 73  2  0
 73 74  1  0
 74 75  2  0
 75 76  1  0
 65 77  1  0
 77 78  2  0
 77 79  1  0
 79 80  1  0
 80 81  1  0
 81 82  1  0
 82 83  1  0
 83 84  1  0
 83 85  2  0
 80 86  1  0
 86 87  1  0
 86 88  2  0
 53 89  1  0
 89 90  1  0
 89 91  1  0
 91 92  1  0
 92 93  2  0
 92 94  1  0
 92 95  1  0
 25 17  1  0
 49 41  1  0
 61 56  1  0
 76 67  2  0
 25 20  1  0
 49 44  1  0
 75 70  1  0
  1 96  1  0
  1 97  1  0
  1 98  1  0
  4 99  1  0
  5100  1  1
  6101  1  0
  6102  1  0
  7103  1  0
  7104  1  0
  8105  1  0
  8106  1  0
  9107  1  0
  9108  1  0
 10109  1  0
 13110  1  0
 13111  1  0
 14112  1  0
 14113  1  0
 15114  1  0
 15115  1  0
 16116  1  0
 16117  1  0
 17118  1  6
 19119  1  0
 19120  1  0
 20121  1  6
 21122  1  0
 24123  1  0
 25124  1  6
 28125  1  0
 29126  1  6
 30127  1  0
 30128  1  0
 30129  1  0
 33130  1  0
 34131  1  1
 35132  1  0
 35133  1  0
 35134  1  0
 38135  1  0
 39136  1  6
 40137  1  0
 40138  1  0
 42139  1  0
 45140  1  0
 46141  1  0
 47142  1  0
 48143  1  0
 52144  1  0
 53145  1  1
 57146  1  0
 57147  1  0
 58148  1  0
 58149  1  0
 59150  1  0
 59151  1  0
 60152  1  0
 60153  1  0
 61154  1  1
 64155  1  0
 65156  1  6
 66157  1  0
 66158  1  0
 68159  1  0
 69160  1  0
 71161  1  0
 72162  1  0
 73163  1  0
 74164  1  0
 76165  1  0
 79166  1  0
 80167  1  6
 81168  1  0
 81169  1  0
 82170  1  0
 82171  1  0
 84172  1  0
 84173  1  0
 87174  1  0
 87175  1  0
 89176  1  1
 90177  1  0
 90178  1  0
 90179  1  0
 94180  1  0
 95181  1  0
M  END
$$$$
