
     RDKit          3D

344354  0  0  0  0  0  0  0  0999 V2000
    6.4772    8.4282   -0.4282 C   0  0  0  0  0  0  0  0  0  0  0  0
    6.2806    7.0168   -0.7192 N   0  0  0  0  0  0  0  0  0  0  0  0
    6.5518    6.6059   -2.1048 C   0  0  0  0  0  0  0  0  0  0  0  0
    7.2637    5.2614   -2.2817 C   0  0  0  0  0  0  0  0  0  0  0  0
    7.2017    4.6343   -3.3365 O   0  0  0  0  0  0  0  0  0  0  0  0
    8.1148    4.9135   -1.2534 N   0  0  0  0  0  0  0  0  0  0  0  0
    8.6772    3.5631   -1.1608 C   0  0  2  0  0  0  0  0  0  0  0  0
    7.8327    2.7198   -0.1959 C   0  0  0  0  0  0  0  0  0  0  0  0
    7.9478    3.1382    1.2464 C   0  0  0  0  0  0  0  0  0  0  0  0
    7.7273    2.4371    2.2233 O   0  0  0  0  0  0  0  0  0  0  0  0
    8.2664    4.4329    1.4437 O   0  0  0  0  0  0  0  0  0  0  0  0
   10.1822    3.5041   -0.7735 C   0  0  0  0  0  0  0  0  0  0  0  0
   10.6069    2.5916   -0.0500 O   0  0  0  0  0  0  0  0  0  0  0  0
   11.0881    4.3907   -1.3348 N   0  0  0  0  0  0  0  0  0  0  0  0
   10.8234    5.3408   -2.4106 C   0  0  0  0  0  0  0  0  0  0  0  0
   10.9400    6.7649   -1.8701 C   0  0  0  0  0  0  0  0  0  0  0  0
   12.0708    6.9022   -0.8393 C   0  0  0  0  0  0  0  0  0  0  0  0
   13.1177    5.7986   -0.9901 C   0  0  0  0  0  0  0  0  0  0  0  0
   12.4841    4.4001   -0.8474 C   0  0  2  0  0  0  0  0  0  0  0  0
   13.2665    3.3326   -1.6450 C   0  0  0  0  0  0  0  0  0  0  0  0
   13.8996    3.5822   -2.6668 O   0  0  0  0  0  0  0  0  0  0  0  0
   13.1105    2.0487   -1.1626 N   0  0  0  0  0  0  0  0  0  0  0  0
   13.5275    0.8793   -1.9392 C   0  0  1  0  0  0  0  0  0  0  0  0
   15.0582    0.7235   -2.0727 C   0  0  0  0  0  0  0  0  0  0  0  0
   15.8073    0.4859   -0.7770 C   0  0  0  0  0  0  0  0  0  0  0  0
   16.1751    1.5557    0.0407 C   0  0  0  0  0  0  0  0  0  0  0  0
   16.8835    1.3336    1.2250 C   0  0  0  0  0  0  0  0  0  0  0  0
   17.2405    0.0352    1.6133 C   0  0  0  0  0  0  0  0  0  0  0  0
   17.9535   -0.2083    2.7985 C   0  0  0  0  0  0  0  0  0  0  0  0
   18.2929   -1.5097    3.1709 C   0  0  0  0  0  0  0  0  0  0  0  0
   17.9292   -2.5838    2.3632 C   0  0  0  0  0  0  0  0  0  0  0  0
   17.2257   -2.3575    1.1805 C   0  0  0  0  0  0  0  0  0  0  0  0
   16.8749   -1.0559    0.7942 C   0  0  0  0  0  0  0  0  0  0  0  0
   16.1648   -0.8146   -0.3919 C   0  0  0  0  0  0  0  0  0  0  0  0
   12.8663   -0.4266   -1.4403 C   0  0  0  0  0  0  0  0  0  0  0  0
   13.3827   -1.5353   -1.5715 O   0  0  0  0  0  0  0  0  0  0  0  0
   11.5846   -0.2884   -0.9438 N   0  0  0  0  0  0  0  0  0  0  0  0
   10.7848   -1.4585   -0.5937 C   0  0  1  0  0  0  0  0  0  0  0  0
   11.0132   -1.9144    0.8528 C   0  0  0  0  0  0  0  0  0  0  0  0
   10.6717   -0.8935    1.9487 C   0  0  0  0  0  0  0  0  0  0  0  0
   11.7482    0.1545    2.2417 C   0  0  0  0  0  0  0  0  0  0  0  0
   13.0581   -0.4311    2.4759 N   0  0  0  0  0  0  0  0  0  0  0  0
   13.3618   -1.1191    3.5948 C   0  0  0  0  0  0  0  0  0  0  0  0
   12.6427   -1.1889    4.6532 N   0  0  0  0  0  0  0  0  0  0  0  0
   14.5644   -1.7269    3.5404 N   0  0  0  0  0  0  0  0  0  0  0  0
    9.3087   -1.2362   -1.0119 C   0  0  0  0  0  0  0  0  0  0  0  0
    8.9558   -0.2183   -1.6091 O   0  0  0  0  0  0  0  0  0  0  0  0
    8.4766   -2.3100   -0.7872 N   0  0  0  0  0  0  0  0  0  0  0  0
    7.0709   -2.3401   -1.2013 C   0  0  1  0  0  0  0  0  0  0  0  0
    6.7940   -3.6182   -2.0052 C   0  0  0  0  0  0  0  0  0  0  0  0
    7.0587   -4.9304   -1.2513 C   0  0  0  0  0  0  0  0  0  0  0  0
    6.8773   -6.1331   -2.1793 C   0  0  0  0  0  0  0  0  0  0  0  0
    7.4917   -7.3141   -1.5966 N   0  0  0  0  0  0  0  0  0  0  0  0
    6.7783   -8.2266   -0.8985 C   0  0  0  0  0  0  0  0  0  0  0  0
    5.5549   -8.1017   -0.5415 N   0  0  0  0  0  0  0  0  0  0  0  0
    7.5301   -9.3082   -0.6167 N   0  0  0  0  0  0  0  0  0  0  0  0
    6.1455   -2.0868    0.0205 C   0  0  0  0  0  0  0  0  0  0  0  0
    6.5672   -1.6257    1.0776 O   0  0  0  0  0  0  0  0  0  0  0  0
    4.8144   -2.3267   -0.1934 N   0  0  0  0  0  0  0  0  0  0  0  0
    3.7292   -1.7951    0.6395 C   0  0  2  0  0  0  0  0  0  0  0  0
    3.6551   -2.3252    2.0773 C   0  0  0  0  0  0  0  0  0  0  0  0
    3.4161   -3.8113    2.2124 C   0  0  0  0  0  0  0  0  0  0  0  0
    2.1208   -4.3160    2.3833 C   0  0  0  0  0  0  0  0  0  0  0  0
    1.9080   -5.6897    2.5047 C   0  0  0  0  0  0  0  0  0  0  0  0
    2.9864   -6.5716    2.4464 C   0  0  0  0  0  0  0  0  0  0  0  0
    4.2792   -6.0779    2.2783 C   0  0  0  0  0  0  0  0  0  0  0  0
    4.4936   -4.7036    2.1686 C   0  0  0  0  0  0  0  0  0  0  0  0
    2.4391   -2.0511   -0.1731 C   0  0  0  0  0  0  0  0  0  0  0  0
    2.4644   -2.7023   -1.2200 O   0  0  0  0  0  0  0  0  0  0  0  0
    1.2842   -1.4590    0.3008 N   0  0  0  0  0  0  0  0  0  0  0  0
    0.1533   -1.2968   -0.6275 C   0  0  1  0  0  0  0  0  0  0  0  0
    0.4900   -0.3925   -1.8328 C   0  0  0  0  0  0  0  0  0  0  0  0
    0.2950    1.0314   -1.5544 N   0  0  0  0  0  0  0  0  0  0  0  0
    0.8715    1.6915   -0.4914 C   0  0  0  0  0  0  0  0  0  0  0  0
    1.5822    1.1760    0.3605 O   0  0  0  0  0  0  0  0  0  0  0  0
    0.5317    3.1296   -0.4048 C   0  0  0  0  0  0  0  0  0  0  0  0
   -0.7788    3.5509   -0.6502 C   0  0  0  0  0  0  0  0  0  0  0  0
   -1.1033    4.9132   -0.6003 C   0  0  0  0  0  0  0  0  0  0  0  0
   -0.1063    5.8518   -0.3092 C   0  0  0  0  0  0  0  0  0  0  0  0
    1.1971    5.4165   -0.0276 C   0  0  0  0  0  0  0  0  0  0  0  0
    1.5219    4.0537   -0.0768 C   0  0  0  0  0  0  0  0  0  0  0  0
    2.2700    6.4173    0.1488 C   0  0  0  0  0  0  0  0  0  0  0  0
    2.3479    7.3438   -0.6542 O   0  0  0  0  0  0  0  0  0  0  0  0
    3.1949    6.2335    1.1569 N   0  0  0  0  0  0  0  0  0  0  0  0
    3.0999    5.4101    2.3480 C   0  0  0  0  0  0  0  0  0  0  0  0
    4.0343    6.1133    3.3188 C   0  0  0  0  0  0  0  0  0  0  0  0
    5.1624    6.6271    2.4255 C   0  0  0  0  0  0  0  0  0  0  0  0
    4.4865    6.9127    1.0794 C   0  0  1  0  0  0  0  0  0  0  0  0
    5.2858    6.2679   -0.0842 C   0  0  0  0  0  0  0  0  0  0  0  0
    5.0843    5.0912   -0.4142 O   0  0  0  0  0  0  0  0  0  0  0  0
   -2.4779    5.3693   -0.9460 C   0  0  0  0  0  0  0  0  0  0  0  0
   -2.6452    6.4535   -1.4944 O   0  0  0  0  0  0  0  0  0  0  0  0
   -3.4881    4.4787   -0.6481 N   0  0  0  0  0  0  0  0  0  0  0  0
   -4.8340    4.5924   -1.1931 C   0  0  0  0  0  0  0  0  0  0  0  0
   -5.9377    4.5421   -0.1224 C   0  0  1  0  0  0  0  0  0  0  0  0
   -6.1149    5.9246    0.5327 C   0  0  0  0  0  0  0  0  0  0  0  0
   -5.4824    6.2190    1.5451 O   0  0  0  0  0  0  0  0  0  0  0  0
   -6.9261    6.8134   -0.1454 N   0  0  0  0  0  0  0  0  0  0  0  0
   -6.8538    8.2619    0.1042 C   0  0  1  0  0  0  0  0  0  0  0  0
   -7.0039    8.6395    1.5857 C   0  0  0  0  0  0  0  0  0  0  0  0
   -7.6031   10.0367    1.7789 C   0  0  0  0  0  0  0  0  0  0  0  0
   -7.4861   10.4817    3.2419 C   0  0  0  0  0  0  0  0  0  0  0  0
   -8.1389   11.8372    3.5308 C   0  0  0  0  0  0  0  0  0  0  0  0
   -7.5224   12.9408    2.8028 N   0  0  0  0  0  0  0  0  0  0  0  0
   -5.5601    8.8328   -0.5128 C   0  0  0  0  0  0  0  0  0  0  0  0
   -5.0854    9.9438   -0.3143 O   0  0  0  0  0  0  0  0  0  0  0  0
   -4.9990    7.9887   -1.4061 O   0  0  0  0  0  0  0  0  0  0  0  0
   -7.1873    3.9457   -0.6095 N   0  0  0  0  0  0  0  0  0  0  0  0
   -7.7888    4.2472   -1.8060 C   0  0  0  0  0  0  0  0  0  0  0  0
   -7.3765    5.1655   -2.5121 O   0  0  0  0  0  0  0  0  0  0  0  0
   -8.8781    3.2394   -2.2740 C   0  0  2  0  0  0  0  0  0  0  0  0
   -9.5840    3.6945   -3.5740 C   0  0  0  0  0  0  0  0  0  0  0  0
  -10.6825    4.7639   -3.4462 C   0  0  0  0  0  0  0  0  0  0  0  0
  -10.1741    6.1724   -3.1453 C   0  0  0  0  0  0  0  0  0  0  0  0
  -11.2972    7.0952   -3.0207 N   0  0  0  0  0  0  0  0  0  0  0  0
  -11.9391    7.2357   -1.8336 C   0  0  0  0  0  0  0  0  0  0  0  0
  -11.8075    6.4503   -0.8303 N   0  0  0  0  0  0  0  0  0  0  0  0
  -12.7311    8.3264   -1.8278 N   0  0  0  0  0  0  0  0  0  0  0  0
   -9.8512    2.8273   -1.2569 N   0  0  0  0  0  0  0  0  0  0  0  0
   -9.5604    1.9378   -0.2452 C   0  0  0  0  0  0  0  0  0  0  0  0
   -8.4030    1.6467    0.0597 O   0  0  0  0  0  0  0  0  0  0  0  0
  -10.7930    1.4075    0.5237 C   0  0  2  0  0  0  0  0  0  0  0  0
  -11.1995    2.3435    1.6672 C   0  0  0  0  0  0  0  0  0  0  0  0
  -11.7983    3.6968    1.2636 C   0  0  0  0  0  0  0  0  0  0  0  0
  -13.0221    3.6481    0.3420 C   0  0  0  0  0  0  0  0  0  0  0  0
  -14.0093    2.6763    0.7814 N   0  0  0  0  0  0  0  0  0  0  0  0
  -14.8278    2.9257    1.8307 C   0  0  0  0  0  0  0  0  0  0  0  0
  -14.7440    3.9322    2.6133 N   0  0  0  0  0  0  0  0  0  0  0  0
  -15.7545    1.9577    1.9591 N   0  0  0  0  0  0  0  0  0  0  0  0
  -10.4678    0.0900    1.0831 N   0  0  0  0  0  0  0  0  0  0  0  0
  -10.5039   -1.0328    0.2897 C   0  0  0  0  0  0  0  0  0  0  0  0
  -10.7862   -0.9787   -0.9097 O   0  0  0  0  0  0  0  0  0  0  0  0
  -10.3349   -2.3968    1.0101 C   0  0  2  0  0  0  0  0  0  0  0  0
   -9.7995   -2.3847    2.4492 C   0  0  0  0  0  0  0  0  0  0  0  0
   -9.7699   -3.7641    3.1286 C   0  0  0  0  0  0  0  0  0  0  0  0
  -11.1413   -4.4394    3.1841 C   0  0  0  0  0  0  0  0  0  0  0  0
  -11.0657   -5.6770    3.9388 N   0  0  0  0  0  0  0  0  0  0  0  0
  -12.1881   -6.3408    4.2965 C   0  0  0  0  0  0  0  0  0  0  0  0
  -13.3757   -5.8569    4.2647 N   0  0  0  0  0  0  0  0  0  0  0  0
  -11.9164   -7.5997    4.6925 N   0  0  0  0  0  0  0  0  0  0  0  0
   -9.6842   -3.3366    0.0995 N   0  0  0  0  0  0  0  0  0  0  0  0
   -8.3151   -3.4061   -0.0930 C   0  0  0  0  0  0  0  0  0  0  0  0
   -7.4940   -2.8101    0.5972 O   0  0  0  0  0  0  0  0  0  0  0  0
   -7.9112   -4.3504   -1.2453 C   0  0  2  0  0  0  0  0  0  0  0  0
   -8.2775   -5.8171   -0.9382 C   0  0  0  0  0  0  0  0  0  0  0  0
   -7.4353   -6.4297    0.1901 C   0  0  0  0  0  0  0  0  0  0  0  0
   -7.6768   -7.9286    0.3614 C   0  0  0  0  0  0  0  0  0  0  0  0
   -9.0518   -8.2103    0.7126 N   0  0  0  0  0  0  0  0  0  0  0  0
   -9.5992   -8.0767    1.9396 C   0  0  0  0  0  0  0  0  0  0  0  0
   -9.0954   -7.5333    2.9870 N   0  0  0  0  0  0  0  0  0  0  0  0
  -10.8483   -8.5789    1.9786 N   0  0  0  0  0  0  0  0  0  0  0  0
   -6.5059   -4.2392   -1.6179 N   0  0  0  0  0  0  0  0  0  0  0  0
   -6.0829   -4.6416   -2.8621 C   0  0  0  0  0  0  0  0  0  0  0  0
   -6.8961   -4.8883   -3.7533 O   0  0  0  0  0  0  0  0  0  0  0  0
   -4.5619   -4.6342   -3.1091 C   0  0  2  0  0  0  0  0  0  0  0  0
   -4.1957   -5.5040   -4.3386 C   0  0  0  0  0  0  0  0  0  0  0  0
   -4.2426   -7.0025   -4.0945 C   0  0  0  0  0  0  0  0  0  0  0  0
   -3.0653   -7.7143   -3.8297 C   0  0  0  0  0  0  0  0  0  0  0  0
   -3.1095   -9.0826   -3.5501 C   0  0  0  0  0  0  0  0  0  0  0  0
   -4.3293   -9.7748   -3.5289 C   0  0  0  0  0  0  0  0  0  0  0  0
   -4.3908  -11.1483   -3.2385 C   0  0  0  0  0  0  0  0  0  0  0  0
   -5.6164  -11.8211   -3.2324 C   0  0  0  0  0  0  0  0  0  0  0  0
   -6.7911  -11.1291   -3.5140 C   0  0  0  0  0  0  0  0  0  0  0  0
   -6.7430   -9.7652   -3.8026 C   0  0  0  0  0  0  0  0  0  0  0  0
   -5.5205   -9.0746   -3.8134 C   0  0  0  0  0  0  0  0  0  0  0  0
   -5.4577   -7.7005   -4.1026 C   0  0  0  0  0  0  0  0  0  0  0  0
   -3.7399   -4.9982   -1.9445 N   0  0  0  0  0  0  0  0  0  0  0  0
   -3.1878   -4.0511   -1.1160 C   0  0  0  0  0  0  0  0  0  0  0  0
   -3.6954   -2.9407   -0.9604 O   0  0  0  0  0  0  0  0  0  0  0  0
   -1.8931   -4.5057   -0.3966 C   0  0  2  0  0  0  0  0  0  0  0  0
   -2.2187   -5.3476    0.8443 C   0  0  0  0  0  0  0  0  0  0  0  0
   -2.2198   -6.8303    0.5463 C   0  0  0  0  0  0  0  0  0  0  0  0
   -3.4067   -7.5678    0.5789 C   0  0  0  0  0  0  0  0  0  0  0  0
   -3.3990   -8.9327    0.2819 C   0  0  0  0  0  0  0  0  0  0  0  0
   -2.1993   -9.5712   -0.0345 C   0  0  0  0  0  0  0  0  0  0  0  0
   -1.0094   -8.8465   -0.0628 C   0  0  0  0  0  0  0  0  0  0  0  0
   -1.0197   -7.4827    0.2289 C   0  0  0  0  0  0  0  0  0  0  0  0
   -1.1087   -3.3247   -0.0473 N   0  0  0  0  0  0  0  0  0  0  0  0
   -0.4675   -2.6369   -1.0713 C   0  0  0  0  0  0  0  0  0  0  0  0
   -0.4656   -3.0428   -2.2291 O   0  0  0  0  0  0  0  0  0  0  0  0
    6.4480    8.6049    0.6502 H   0  0  0  0  0  0  0  0  0  0  0  0
    5.6853    9.0056   -0.9123 H   0  0  0  0  0  0  0  0  0  0  0  0
    7.4566    8.7417   -0.7998 H   0  0  0  0  0  0  0  0  0  0  0  0
    5.5949    6.5634   -2.6396 H   0  0  0  0  0  0  0  0  0  0  0  0
    7.1909    7.3555   -2.5813 H   0  0  0  0  0  0  0  0  0  0  0  0
    7.9824    5.3985   -0.3714 H   0  0  0  0  0  0  0  0  0  0  0  0
    8.6179    3.0925   -2.1496 H   0  0  0  0  0  0  0  0  0  0  0  0
    8.1562    1.6753   -0.2377 H   0  0  0  0  0  0  0  0  0  0  0  0
    6.7735    2.7555   -0.4715 H   0  0  0  0  0  0  0  0  0  0  0  0
    8.3006    4.4764    2.4247 H   0  0  0  0  0  0  0  0  0  0  0  0
   11.5768    5.1758   -3.1892 H   0  0  0  0  0  0  0  0  0  0  0  0
    9.8695    5.1694   -2.9024 H   0  0  0  0  0  0  0  0  0  0  0  0
   11.1065    7.4539   -2.7065 H   0  0  0  0  0  0  0  0  0  0  0  0
    9.9998    7.0747   -1.3960 H   0  0  0  0  0  0  0  0  0  0  0  0
   12.5372    7.8911   -0.9269 H   0  0  0  0  0  0  0  0  0  0  0  0
   11.6428    6.8484    0.1710 H   0  0  0  0  0  0  0  0  0  0  0  0
   13.6107    5.9228   -1.9626 H   0  0  0  0  0  0  0  0  0  0  0  0
   13.9074    5.9191   -0.2377 H   0  0  0  0  0  0  0  0  0  0  0  0
   12.4902    4.1209    0.2133 H   0  0  0  0  0  0  0  0  0  0  0  0
   12.3955    1.9236   -0.4471 H   0  0  0  0  0  0  0  0  0  0  0  0
   13.1259    1.0338   -2.9509 H   0  0  0  0  0  0  0  0  0  0  0  0
   15.4911    1.6093   -2.5560 H   0  0  0  0  0  0  0  0  0  0  0  0
   15.2743   -0.1063   -2.7591 H   0  0  0  0  0  0  0  0  0  0  0  0
   15.9284    2.5761   -0.2454 H   0  0  0  0  0  0  0  0  0  0  0  0
   17.1617    2.1876    1.8376 H   0  0  0  0  0  0  0  0  0  0  0  0
   18.2472    0.6176    3.4419 H   0  0  0  0  0  0  0  0  0  0  0  0
   18.8445   -1.6836    4.0915 H   0  0  0  0  0  0  0  0  0  0  0  0
   18.1969   -3.5965    2.6535 H   0  0  0  0  0  0  0  0  0  0  0  0
   16.9543   -3.2092    0.5582 H   0  0  0  0  0  0  0  0  0  0  0  0
   15.8908   -1.6525   -1.0324 H   0  0  0  0  0  0  0  0  0  0  0  0
   11.0623    0.5668   -1.1319 H   0  0  0  0  0  0  0  0  0  0  0  0
   11.1176   -2.2807   -1.2422 H   0  0  0  0  0  0  0  0  0  0  0  0
   10.4119   -2.8119    1.0439 H   0  0  0  0  0  0  0  0  0  0  0  0
   12.0515   -2.2475    0.9633 H   0  0  0  0  0  0  0  0  0  0  0  0
    9.7321   -0.3851    1.7109 H   0  0  0  0  0  0  0  0  0  0  0  0
   10.4865   -1.4523    2.8720 H   0  0  0  0  0  0  0  0  0  0  0  0
   11.8311    0.8597    1.4131 H   0  0  0  0  0  0  0  0  0  0  0  0
   11.4464    0.7531    3.1087 H   0  0  0  0  0  0  0  0  0  0  0  0
   13.5790   -0.6405    1.6342 H   0  0  0  0  0  0  0  0  0  0  0  0
   13.1698   -1.7714    5.3119 H   0  0  0  0  0  0  0  0  0  0  0  0
   15.2864   -1.0140    3.4652 H   0  0  0  0  0  0  0  0  0  0  0  0
   14.6767   -2.2227    2.6632 H   0  0  0  0  0  0  0  0  0  0  0  0
    8.7051   -2.9228   -0.0169 H   0  0  0  0  0  0  0  0  0  0  0  0
    6.8960   -1.4874   -1.8724 H   0  0  0  0  0  0  0  0  0  0  0  0
    7.4377   -3.5987   -2.8946 H   0  0  0  0  0  0  0  0  0  0  0  0
    5.7665   -3.6243   -2.3825 H   0  0  0  0  0  0  0  0  0  0  0  0
    8.0813   -4.9337   -0.8531 H   0  0  0  0  0  0  0  0  0  0  0  0
    6.3879   -5.0169   -0.3891 H   0  0  0  0  0  0  0  0  0  0  0  0
    5.8176   -6.2902   -2.4129 H   0  0  0  0  0  0  0  0  0  0  0  0
    7.3838   -5.9361   -3.1323 H   0  0  0  0  0  0  0  0  0  0  0  0
    8.1587   -7.7520   -2.2195 H   0  0  0  0  0  0  0  0  0  0  0  0
    5.2482   -8.9398   -0.0495 H   0  0  0  0  0  0  0  0  0  0  0  0
    7.1226   -9.9482    0.0514 H   0  0  0  0  0  0  0  0  0  0  0  0
    8.4711   -9.0554   -0.3350 H   0  0  0  0  0  0  0  0  0  0  0  0
    4.4959   -2.7103   -1.0806 H   0  0  0  0  0  0  0  0  0  0  0  0
    3.8843   -0.7086    0.6761 H   0  0  0  0  0  0  0  0  0  0  0  0
    4.5751   -2.0734    2.6200 H   0  0  0  0  0  0  0  0  0  0  0  0
    2.8584   -1.7977    2.6169 H   0  0  0  0  0  0  0  0  0  0  0  0
    1.2660   -3.6430    2.4246 H   0  0  0  0  0  0  0  0  0  0  0  0
    0.9031   -6.0750    2.6426 H   0  0  0  0  0  0  0  0  0  0  0  0
    2.8222   -7.6410    2.5283 H   0  0  0  0  0  0  0  0  0  0  0  0
    5.1204   -6.7614    2.2212 H   0  0  0  0  0  0  0  0  0  0  0  0
    5.5092   -4.3331    2.0472 H   0  0  0  0  0  0  0  0  0  0  0  0
    1.4669   -0.6108    0.8384 H   0  0  0  0  0  0  0  0  0  0  0  0
   -0.6283   -0.7969   -0.0366 H   0  0  0  0  0  0  0  0  0  0  0  0
   -0.1716   -0.6084   -2.6788 H   0  0  0  0  0  0  0  0  0  0  0  0
    1.5216   -0.5122   -2.1774 H   0  0  0  0  0  0  0  0  0  0  0  0
   -0.0455    1.5906   -2.3293 H   0  0  0  0  0  0  0  0  0  0  0  0
   -1.5331    2.8132   -0.9142 H   0  0  0  0  0  0  0  0  0  0  0  0
   -0.3301    6.9162   -0.3280 H   0  0  0  0  0  0  0  0  0  0  0  0
    2.5491    3.7212    0.0680 H   0  0  0  0  0  0  0  0  0  0  0  0
    3.4741    4.4090    2.1110 H   0  0  0  0  0  0  0  0  0  0  0  0
    2.0708    5.3465    2.7075 H   0  0  0  0  0  0  0  0  0  0  0  0
    4.3926    5.4544    4.1140 H   0  0  0  0  0  0  0  0  0  0  0  0
    3.5194    6.9633    3.7828 H   0  0  0  0  0  0  0  0  0  0  0  0
    5.6291    7.5253    2.8450 H   0  0  0  0  0  0  0  0  0  0  0  0
    5.9450    5.8651    2.3293 H   0  0  0  0  0  0  0  0  0  0  0  0
    4.3020    7.9773    0.9119 H   0  0  0  0  0  0  0  0  0  0  0  0
   -3.2912    3.6649   -0.0802 H   0  0  0  0  0  0  0  0  0  0  0  0
   -4.9047    5.4782   -1.8296 H   0  0  0  0  0  0  0  0  0  0  0  0
   -4.9308    3.7167   -1.8506 H   0  0  0  0  0  0  0  0  0  0  0  0
   -5.6261    3.8668    0.6868 H   0  0  0  0  0  0  0  0  0  0  0  0
   -7.0980    6.5593   -1.1171 H   0  0  0  0  0  0  0  0  0  0  0  0
   -7.6875    8.6775   -0.4736 H   0  0  0  0  0  0  0  0  0  0  0  0
   -6.0260    8.5991    2.0811 H   0  0  0  0  0  0  0  0  0  0  0  0
   -7.6538    7.9172    2.0934 H   0  0  0  0  0  0  0  0  0  0  0  0
   -8.6580   10.0203    1.4793 H   0  0  0  0  0  0  0  0  0  0  0  0
   -7.0924   10.7552    1.1289 H   0  0  0  0  0  0  0  0  0  0  0  0
   -6.4275   10.5185    3.5345 H   0  0  0  0  0  0  0  0  0  0  0  0
   -7.9610    9.7309    3.8854 H   0  0  0  0  0  0  0  0  0  0  0  0
   -8.0623   12.0460    4.6040 H   0  0  0  0  0  0  0  0  0  0  0  0
   -9.2067   11.7982    3.2876 H   0  0  0  0  0  0  0  0  0  0  0  0
   -7.6287   12.7954    1.7994 H   0  0  0  0  0  0  0  0  0  0  0  0
   -6.5156   12.9408    2.9693 H   0  0  0  0  0  0  0  0  0  0  0  0
   -4.0771    8.2826   -1.5801 H   0  0  0  0  0  0  0  0  0  0  0  0
   -7.4748    3.0754   -0.1603 H   0  0  0  0  0  0  0  0  0  0  0  0
   -8.3103    2.3325   -2.5345 H   0  0  0  0  0  0  0  0  0  0  0  0
   -8.8396    4.0245   -4.3096 H   0  0  0  0  0  0  0  0  0  0  0  0
  -10.0642    2.8071   -4.0093 H   0  0  0  0  0  0  0  0  0  0  0  0
  -11.2247    4.7985   -4.4028 H   0  0  0  0  0  0  0  0  0  0  0  0
  -11.4309    4.4582   -2.7073 H   0  0  0  0  0  0  0  0  0  0  0  0
   -9.5310    6.5083   -3.9687 H   0  0  0  0  0  0  0  0  0  0  0  0
   -9.5791    6.2037   -2.2289 H   0  0  0  0  0  0  0  0  0  0  0  0
  -11.0928    7.9934   -3.4450 H   0  0  0  0  0  0  0  0  0  0  0  0
  -12.3650    6.8049   -0.0498 H   0  0  0  0  0  0  0  0  0  0  0  0
  -13.3868    8.3680   -1.0584 H   0  0  0  0  0  0  0  0  0  0  0  0
  -13.2114    8.4667   -2.7110 H   0  0  0  0  0  0  0  0  0  0  0  0
  -10.8212    2.8656   -1.5385 H   0  0  0  0  0  0  0  0  0  0  0  0
  -11.6184    1.2698   -0.1846 H   0  0  0  0  0  0  0  0  0  0  0  0
  -11.9218    1.8237    2.3109 H   0  0  0  0  0  0  0  0  0  0  0  0
  -10.3279    2.5380    2.3053 H   0  0  0  0  0  0  0  0  0  0  0  0
  -11.0224    4.3110    0.7939 H   0  0  0  0  0  0  0  0  0  0  0  0
  -12.0728    4.2236    2.1839 H   0  0  0  0  0  0  0  0  0  0  0  0
  -12.7078    3.3762   -0.6722 H   0  0  0  0  0  0  0  0  0  0  0  0
  -13.4809    4.6420    0.2622 H   0  0  0  0  0  0  0  0  0  0  0  0
  -14.5275    2.2798    0.0018 H   0  0  0  0  0  0  0  0  0  0  0  0
  -15.4885    3.8929    3.3101 H   0  0  0  0  0  0  0  0  0  0  0  0
  -16.2206    1.9380    2.8556 H   0  0  0  0  0  0  0  0  0  0  0  0
  -15.3840    1.0404    1.7362 H   0  0  0  0  0  0  0  0  0  0  0  0
   -9.7608    0.0894    1.8094 H   0  0  0  0  0  0  0  0  0  0  0  0
  -11.3724   -2.7536    1.0668 H   0  0  0  0  0  0  0  0  0  0  0  0
   -8.7929   -1.9503    2.4847 H   0  0  0  0  0  0  0  0  0  0  0  0
  -10.4249   -1.7173    3.0597 H   0  0  0  0  0  0  0  0  0  0  0  0
   -9.0520   -4.4179    2.6217 H   0  0  0  0  0  0  0  0  0  0  0  0
   -9.3941   -3.6346    4.1535 H   0  0  0  0  0  0  0  0  0  0  0  0
  -11.4950   -4.6713    2.1737 H   0  0  0  0  0  0  0  0  0  0  0  0
  -11.8632   -3.7526    3.6477 H   0  0  0  0  0  0  0  0  0  0  0  0
  -10.2989   -6.2898    3.6259 H   0  0  0  0  0  0  0  0  0  0  0  0
  -14.0361   -6.5721    4.5704 H   0  0  0  0  0  0  0  0  0  0  0  0
  -12.5885   -7.9829    5.3459 H   0  0  0  0  0  0  0  0  0  0  0  0
  -10.9682   -7.6896    5.0555 H   0  0  0  0  0  0  0  0  0  0  0  0
  -10.2428   -3.5626   -0.7178 H   0  0  0  0  0  0  0  0  0  0  0  0
   -8.4999   -4.0286   -2.1163 H   0  0  0  0  0  0  0  0  0  0  0  0
   -8.1381   -6.4175   -1.8442 H   0  0  0  0  0  0  0  0  0  0  0  0
   -9.3400   -5.8905   -0.6809 H   0  0  0  0  0  0  0  0  0  0  0  0
   -7.6362   -5.8998    1.1255 H   0  0  0  0  0  0  0  0  0  0  0  0
   -6.3720   -6.2871   -0.0247 H   0  0  0  0  0  0  0  0  0  0  0  0
   -7.4406   -8.4380   -0.5805 H   0  0  0  0  0  0  0  0  0  0  0  0
   -6.9984   -8.3410    1.1145 H   0  0  0  0  0  0  0  0  0  0  0  0
   -9.4406   -8.9986    0.2017 H   0  0  0  0  0  0  0  0  0  0  0  0
   -8.1452   -7.2283    2.7733 H   0  0  0  0  0  0  0  0  0  0  0  0
  -11.2975   -8.3391    2.8668 H   0  0  0  0  0  0  0  0  0  0  0  0
  -11.4292   -8.2343    1.2257 H   0  0  0  0  0  0  0  0  0  0  0  0
   -5.8491   -3.7969   -0.9736 H   0  0  0  0  0  0  0  0  0  0  0  0
   -4.3231   -3.5933   -3.3643 H   0  0  0  0  0  0  0  0  0  0  0  0
   -4.8403   -5.2642   -5.1939 H   0  0  0  0  0  0  0  0  0  0  0  0
   -3.1779   -5.2405   -4.6586 H   0  0  0  0  0  0  0  0  0  0  0  0
   -2.1022   -7.2100   -3.8333 H   0  0  0  0  0  0  0  0  0  0  0  0
   -2.1773   -9.6035   -3.3413 H   0  0  0  0  0  0  0  0  0  0  0  0
   -3.4839  -11.7059   -3.0221 H   0  0  0  0  0  0  0  0  0  0  0  0
   -5.6492  -12.8856   -3.0166 H   0  0  0  0  0  0  0  0  0  0  0  0
   -7.7421  -11.6538   -3.5188 H   0  0  0  0  0  0  0  0  0  0  0  0
   -7.6695   -9.2415   -4.0271 H   0  0  0  0  0  0  0  0  0  0  0  0
   -6.3795   -7.1709   -4.3438 H   0  0  0  0  0  0  0  0  0  0  0  0
   -3.3317   -5.9289   -1.9428 H   0  0  0  0  0  0  0  0  0  0  0  0
   -1.2967   -5.0777   -1.1216 H   0  0  0  0  0  0  0  0  0  0  0  0
   -1.4748   -5.1755    1.6333 H   0  0  0  0  0  0  0  0  0  0  0  0
   -3.1824   -5.0481    1.2728 H   0  0  0  0  0  0  0  0  0  0  0  0
   -4.3472   -7.0893    0.8374 H   0  0  0  0  0  0  0  0  0  0  0  0
   -4.3244   -9.5004    0.2947 H   0  0  0  0  0  0  0  0  0  0  0  0
   -2.1950  -10.6333   -0.2646 H   0  0  0  0  0  0  0  0  0  0  0  0
   -0.0746   -9.3420   -0.3115 H   0  0  0  0  0  0  0  0  0  0  0  0
   -0.0791   -6.9334    0.2014 H   0  0  0  0  0  0  0  0  0  0  0  0
   -1.4206   -2.7701    0.7401 H   0  0  0  0  0  0  0  0  0  0  0  0
  1  2  1  0
  2  3  1  0
  3  4  1  0
  4  5  2  0
  4  6  1  0
  6  7  1  0
  7  8  1  0
  8  9  1  0
  9 10  2  0
  9 11  1  0
  7 12  1  0
 12 13  2  0
 12 14  1  0
 14 15  1  0
 15 16  1  0
 16 17  1  0
 17 18  1  0
 18 19  1  0
 19 20  1  0
 20 21  2  0
 20 22  1  0
 22 23  1  0
 23 24  1  0
 24 25  1  0
 25 26  1  0
 26 27  2  0
 27 28  1  0
 28 29  2  0
 29 30  1  0
 30 31  2  0
 31 32  1  0
 32 33  2  0
 33 34  1  0
 23 35  1  0
 35 36  2  0
 35 37  1  0
 37 38  1  0
 38 39  1  0
 39 40  1  0
 40 41  1  0
 41 42  1  0
 42 43  1  0
 43 44  2  3
 43 45  1  0
 38 46  1  0
 46 47  2  0
 46 48  1  0
 48 49  1  0
 49 50  1  0
 50 51  1  0
 51 52  1  0
 52 53  1  0
 53 54  1  0
 54 55  2  3
 54 56  1  0
 49 57  1  0
 57 58  2  0
 57 59  1  0
 59 60  1  0
 60 61  1  0
 61 62  1  0
 62 63  2  0
 63 64  1  0
 64 65  2  0
 65 66  1  0
 66 67  2  0
 60 68  1  0
 68 69  2  0
 68 70  1  0
 70 71  1  0
 71 72  1  0
 72 73  1  0
 73 74  1  0
 74 75  2  0
 74 76  1  0
 76 77  2  0
 77 78  1  0
 78 79  2  0
 79 80  1  0
 80 81  2  0
 80 82  1  0
 82 83  2  0
 82 84  1  0
 84 85  1  0
 85 86  1  0
 86 87  1  0
 87 88  1  0
 88 89  1  0
 89 90  2  0
 78 91  1  0
 91 92  2  0
 91 93  1  0
 93 94  1  0
 94 95  1  0
 95 96  1  0
 96 97  2  0
 96 98  1  0
 98 99  1  0
 99100  1  0
100101  1  0
101102  1  0
102103  1  0
103104  1  0
 99105  1  0
105106  2  0
105107  1  0
 95108  1  0
108109  1  0
109110  2  0
109111  1  0
111112  1  0
112113  1  0
113114  1  0
114115  1  0
115116  1  0
116117  2  3
116118  1  0
111119  1  0
119120  1  0
120121  2  0
120122  1  0
122123  1  0
123124  1  0
124125  1  0
125126  1  0
126127  1  0
127128  2  3
127129  1  0
122130  1  0
130131  1  0
131132  2  0
131133  1  0
133134  1  0
134135  1  0
135136  1  0
136137  1  0
137138  1  0
138139  2  3
138140  1  0
133141  1  0
141142  1  0
142143  2  0
142144  1  0
144145  1  0
145146  1  0
146147  1  0
147148  1  0
148149  1  0
149150  2  3
149151  1  0
144152  1  0
152153  1  0
153154  2  0
153155  1  0
155156  1  0
156157  1  0
157158  1  0
158159  2  0
159160  1  0
160161  2  0
161162  1  0
162163  2  0
163164  1  0
164165  2  0
165166  1  0
155167  1  0
167168  1  0
168169  2  0
168170  1  0
170171  1  0
171172  1  0
172173  2  0
173174  1  0
174175  2  0
175176  1  0
176177  2  0
170178  1  0
178179  1  0
179180  2  0
 89  2  1  0
166157  2  0
177172  1  0
 19 14  1  0
 34 25  2  0
 67 62  1  0
179 71  1  0
 33 28  1  0
 81 76  1  0
 88 84  1  0
165160  1  0
  1181  1  0
  1182  1  0
  1183  1  0
  3184  1  0
  3185  1  0
  6186  1  0
  7187  1  6
  8188  1  0
  8189  1  0
 11190  1  0
 15191  1  0
 15192  1  0
 16193  1  0
 16194  1  0
 17195  1  0
 17196  1  0
 18197  1  0
 18198  1  0
 19199  1  1
 22200  1  0
 23201  1  6
 24202  1  0
 24203  1  0
 26204  1  0
 27205  1  0
 29206  1  0
 30207  1  0
 31208  1  0
 32209  1  0
 34210  1  0
 37211  1  0
 38212  1  6
 39213  1  0
 39214  1  0
 40215  1  0
 40216  1  0
 41217  1  0
 41218  1  0
 42219  1  0
 44220  1  0
 45221  1  0
 45222  1  0
 48223  1  0
 49224  1  6
 50225  1  0
 50226  1  0
 51227  1  0
 51228  1  0
 52229  1  0
 52230  1  0
 53231  1  0
 55232  1  0
 56233  1  0
 56234  1  0
 59235  1  0
 60236  1  1
 61237  1  0
 61238  1  0
 63239  1  0
 64240  1  0
 65241  1  0
 66242  1  0
 67243  1  0
 70244  1  0
 71245  1  1
 72246  1  0
 72247  1  0
 73248  1  0
 77249  1  0
 79250  1  0
 81251  1  0
 85252  1  0
 85253  1  0
 86254  1  0
 86255  1  0
 87256  1  0
 87257  1  0
 88258  1  6
 93259  1  0
 94260  1  0
 94261  1  0
 95262  1  1
 98263  1  0
 99264  1  6
100265  1  0
100266  1  0
101267  1  0
101268  1  0
102269  1  0
102270  1  0
103271  1  0
103272  1  0
104273  1  0
104274  1  0
107275  1  0
108276  1  0
111277  1  6
112278  1  0
112279  1  0
113280  1  0
113281  1  0
114282  1  0
114283  1  0
115284  1  0
117285  1  0
118286  1  0
118287  1  0
119288  1  0
122289  1  6
123290  1  0
123291  1  0
124292  1  0
124293  1  0
125294  1  0
125295  1  0
126296  1  0
128297  1  0
129298  1  0
129299  1  0
130300  1  0
133301  1  1
134302  1  0
134303  1  0
135304  1  0
135305  1  0
136306  1  0
136307  1  0
137308  1  0
139309  1  0
140310  1  0
140311  1  0
141312  1  0
144313  1  6
145314  1  0
145315  1  0
146316  1  0
146317  1  0
147318  1  0
147319  1  0
148320  1  0
150321  1  0
151322  1  0
151323  1  0
152324  1  0
155325  1  6
156326  1  0
156327  1  0
158328  1  0
159329  1  0
161330  1  0
162331  1  0
163332  1  0
164333  1  0
166334  1  0
167335  1  0
170336  1  6
171337  1  0
171338  1  0
173339  1  0
174340  1  0
175341  1  0
176342  1  0
177343  1  0
178344  1  0
M  END
$$$$
