
     RDKit          3D

 54 59  0  0  0  0  0  0  0  0999 V2000
    2.1629    1.1927   -5.3921 O   0  0  0  0  0  0  0  0  0  0  0  0
    1.3966    0.6563   -4.6038 C   0  0  0  0  0  0  0  0  0  0  0  0
    0.4309   -0.1608   -5.0714 O   0  0  0  0  0  0  0  0  0  0  0  0
    1.4171    0.8407   -3.0771 C   0  0  0  0  0  0  0  0  0  0  0  0
    2.8369    0.4437   -2.6147 C   0  0  0  0  0  0  0  0  0  0  0  0
    3.0454    0.4975   -1.1303 C   0  0  0  0  0  0  0  0  0  0  0  0
    3.8241    1.3289   -0.3515 C   0  0  0  0  0  0  0  0  0  0  0  0
    3.6388    0.9573    1.0086 C   0  0  0  0  0  0  0  0  0  0  0  0
    4.1400    1.4427    2.2334 C   0  0  0  0  0  0  0  0  0  0  0  0
    3.7293    0.8378    3.4268 C   0  0  0  0  0  0  0  0  0  0  0  0
    2.8392   -0.2287    3.4006 C   0  0  0  0  0  0  0  0  0  0  0  0
    2.4604   -0.7879    4.5584 F   0  0  0  0  0  0  0  0  0  0  0  0
    2.3296   -0.7353    2.2063 C   0  0  0  0  0  0  0  0  0  0  0  0
    2.7520   -0.1202    1.0221 C   0  0  0  0  0  0  0  0  0  0  0  0
    2.4234   -0.3906   -0.2852 N   0  0  0  0  0  0  0  0  0  0  0  0
    1.0728    2.2979   -2.7587 C   0  0  0  0  0  0  0  0  0  0  0  0
   -0.7313    2.2828   -2.6288 S   0  0  0  0  0  0  0  0  0  0  0  0
   -0.6927    0.5856   -2.2268 C   0  0  0  0  0  0  0  0  0  0  0  0
   -1.9365   -0.0520   -1.6826 C   0  0  0  0  0  0  0  0  0  0  0  0
   -1.6553   -0.8143   -0.3867 C   0  0  0  0  0  0  0  0  0  0  0  0
   -2.8087   -1.7467   -0.0215 C   0  0  0  0  0  0  0  0  0  0  0  0
   -3.3240   -2.8064   -0.7539 C   0  0  0  0  0  0  0  0  0  0  0  0
   -4.3852   -3.5310   -0.2080 C   0  0  0  0  0  0  0  0  0  0  0  0
   -4.9091   -3.1976    1.0515 C   0  0  0  0  0  0  0  0  0  0  0  0
   -4.3778   -2.1357    1.7898 C   0  0  0  0  0  0  0  0  0  0  0  0
   -3.3251   -1.4155    1.2487 C   0  0  0  0  0  0  0  0  0  0  0  0
   -2.5777   -0.2978    1.7822 C   0  0  0  0  0  0  0  0  0  0  0  0
   -2.6992    0.3642    2.9937 C   0  0  0  0  0  0  0  0  0  0  0  0
   -1.8165    1.4106    3.2735 C   0  0  0  0  0  0  0  0  0  0  0  0
   -0.8284    1.7814    2.3490 C   0  0  0  0  0  0  0  0  0  0  0  0
   -0.7084    1.1179    1.1261 C   0  0  0  0  0  0  0  0  0  0  0  0
   -1.5892    0.0836    0.8476 C   0  0  0  0  0  0  0  0  0  0  0  0
    0.4086   -0.0659   -2.4236 N   0  0  0  0  0  0  0  0  0  0  0  0
    0.5610   -0.1654   -6.0421 H   0  0  0  0  0  0  0  0  0  0  0  0
    3.0630   -0.5772   -2.9534 H   0  0  0  0  0  0  0  0  0  0  0  0
    3.5805    1.0923   -3.0974 H   0  0  0  0  0  0  0  0  0  0  0  0
    4.4541    2.1304   -0.7157 H   0  0  0  0  0  0  0  0  0  0  0  0
    4.8338    2.2778    2.2535 H   0  0  0  0  0  0  0  0  0  0  0  0
    4.1020    1.1976    4.3806 H   0  0  0  0  0  0  0  0  0  0  0  0
    1.6306   -1.5634    2.2111 H   0  0  0  0  0  0  0  0  0  0  0  0
    1.7714   -1.1052   -0.5846 H   0  0  0  0  0  0  0  0  0  0  0  0
    1.4669    2.6232   -1.7922 H   0  0  0  0  0  0  0  0  0  0  0  0
    1.3989    3.0071   -3.5250 H   0  0  0  0  0  0  0  0  0  0  0  0
   -2.7292    0.6927   -1.5406 H   0  0  0  0  0  0  0  0  0  0  0  0
   -2.2851   -0.7398   -2.4636 H   0  0  0  0  0  0  0  0  0  0  0  0
   -0.7362   -1.4108   -0.4350 H   0  0  0  0  0  0  0  0  0  0  0  0
   -2.9174   -3.0737   -1.7238 H   0  0  0  0  0  0  0  0  0  0  0  0
   -4.8103   -4.3653   -0.7613 H   0  0  0  0  0  0  0  0  0  0  0  0
   -5.7348   -3.7760    1.4593 H   0  0  0  0  0  0  0  0  0  0  0  0
   -4.7849   -1.8914    2.7651 H   0  0  0  0  0  0  0  0  0  0  0  0
   -3.4529    0.0782    3.7193 H   0  0  0  0  0  0  0  0  0  0  0  0
   -1.8885    1.9378    4.2218 H   0  0  0  0  0  0  0  0  0  0  0  0
   -0.1405    2.5882    2.5922 H   0  0  0  0  0  0  0  0  0  0  0  0
    0.0745    1.4079    0.4348 H   0  0  0  0  0  0  0  0  0  0  0  0
  1  2  2  0
  2  3  1  0
  2  4  1  0
  4  5  1  0
  5  6  1  0
  6  7  2  0
  7  8  1  0
  8  9  2  0
  9 10  1  0
 10 11  2  0
 11 12  1  0
 11 13  1  0
 13 14  2  0
 14 15  1  0
  4 16  1  0
 16 17  1  0
 17 18  1  0
 18 19  1  0
 19 20  1  0
 20 21  1  0
 21 22  2  0
 22 23  1  0
 23 24  2  0
 24 25  1  0
 25 26  2  0
 26 27  1  0
 27 28  2  0
 28 29  1  0
 29 30  2  0
 30 31  1  0
 31 32  2  0
 18 33  2  0
 33  4  1  0
 15  6  1  0
 32 20  1  0
 14  8  1  0
 26 21  1  0
 32 27  1  0
  3 34  1  0
  5 35  1  0
  5 36  1  0
  7 37  1  0
  9 38  1  0
 10 39  1  0
 13 40  1  0
 15 41  1  0
 16 42  1  0
 16 43  1  0
 19 44  1  0
 19 45  1  0
 20 46  1  0
 22 47  1  0
 23 48  1  0
 24 49  1  0
 25 50  1  0
 28 51  1  0
 29 52  1  0
 30 53  1  0
 31 54  1  0
M  END
$$$$
