
     RDKit          3D

318328  0  0  0  0  0  0  0  0999 V2000
   -4.8779   -1.1651   -3.6134 C   0  0  0  0  0  0  0  0  0  0  0  0
   -4.6476   -2.5550   -3.0222 C   0  0  2  0  0  0  0  0  0  0  0  0
   -4.9108   -2.5403   -1.5799 N   0  0  0  0  0  0  0  0  0  0  0  0
   -6.1292   -2.9966   -1.1152 C   0  0  0  0  0  0  0  0  0  0  0  0
   -6.8203   -3.8119   -1.7324 O   0  0  0  0  0  0  0  0  0  0  0  0
   -6.5771   -2.4284    0.2486 C   0  0  2  0  0  0  0  0  0  0  0  0
   -5.8973   -3.1230    1.4315 C   0  0  0  0  0  0  0  0  0  0  0  0
   -6.1804   -4.6193    1.6442 C   0  0  0  0  0  0  0  0  0  0  0  0
   -7.5612   -4.9093    2.2454 C   0  0  0  0  0  0  0  0  0  0  0  0
   -7.5639   -6.1572    3.0006 N   0  0  0  0  0  0  0  0  0  0  0  0
   -7.4627   -7.3668    2.4149 C   0  0  0  0  0  0  0  0  0  0  0  0
   -7.1478   -7.5706    1.1873 N   0  0  0  0  0  0  0  0  0  0  0  0
   -7.6839   -8.3549    3.3046 N   0  0  0  0  0  0  0  0  0  0  0  0
   -8.0389   -2.4726    0.2792 N   0  0  0  0  0  0  0  0  0  0  0  0
   -8.7220   -1.5099   -0.4475 C   0  0  0  0  0  0  0  0  0  0  0  0
   -8.1473   -0.5673   -0.9997 O   0  0  0  0  0  0  0  0  0  0  0  0
  -10.2541   -1.6967   -0.5505 C   0  0  2  0  0  0  0  0  0  0  0  0
  -10.6129   -2.9565   -1.3536 C   0  0  0  0  0  0  0  0  0  0  0  0
  -12.0984   -3.1078   -1.6245 C   0  0  0  0  0  0  0  0  0  0  0  0
  -12.5699   -3.1814   -2.9437 C   0  0  0  0  0  0  0  0  0  0  0  0
  -13.9370   -3.3051   -3.2030 C   0  0  0  0  0  0  0  0  0  0  0  0
  -14.8635   -3.3536   -2.1537 C   0  0  0  0  0  0  0  0  0  0  0  0
  -16.2407   -3.4747   -2.4023 C   0  0  0  0  0  0  0  0  0  0  0  0
  -17.1530   -3.5273   -1.3460 C   0  0  0  0  0  0  0  0  0  0  0  0
  -16.7019   -3.4492   -0.0331 C   0  0  0  0  0  0  0  0  0  0  0  0
  -15.3352   -3.3320    0.2296 C   0  0  0  0  0  0  0  0  0  0  0  0
  -14.4025   -3.2850   -0.8202 C   0  0  0  0  0  0  0  0  0  0  0  0
  -13.0237   -3.1664   -0.5728 C   0  0  0  0  0  0  0  0  0  0  0  0
  -10.7523   -0.4881   -1.2178 N   0  0  0  0  0  0  0  0  0  0  0  0
  -11.2755    0.5538   -0.4761 C   0  0  0  0  0  0  0  0  0  0  0  0
  -11.6116    0.4338    0.7038 O   0  0  0  0  0  0  0  0  0  0  0  0
  -11.4629    1.8523   -1.2931 C   0  0  1  0  0  0  0  0  0  0  0  0
  -12.6128    1.6719   -2.3006 C   0  0  0  0  0  0  0  0  0  0  0  0
  -13.1445    3.0226   -2.7771 C   0  0  0  0  0  0  0  0  0  0  0  0
  -13.5942    3.9092   -1.6095 C   0  0  0  0  0  0  0  0  0  0  0  0
  -13.0788    3.4304   -0.2512 C   0  0  0  0  0  0  0  0  0  0  0  0
  -11.6964    2.9761   -0.3661 N   0  0  0  0  0  0  0  0  0  0  0  0
  -10.5911    3.5301    0.2755 C   0  0  0  0  0  0  0  0  0  0  0  0
   -9.4376    3.1938   -0.0324 O   0  0  0  0  0  0  0  0  0  0  0  0
  -10.8365    4.5792    1.4010 C   0  0  1  0  0  0  0  0  0  0  0  0
  -11.3595    3.8758    2.6738 C   0  0  2  0  0  0  0  0  0  0  0  0
  -11.9773    4.8761    3.6452 C   0  0  0  0  0  0  0  0  0  0  0  0
  -10.2715    3.2211    3.3443 O   0  0  0  0  0  0  0  0  0  0  0  0
   -9.5529    5.2306    1.6726 N   0  0  0  0  0  0  0  0  0  0  0  0
   -9.0412    6.0988    0.7269 C   0  0  0  0  0  0  0  0  0  0  0  0
   -9.7255    6.5619   -0.1872 O   0  0  0  0  0  0  0  0  0  0  0  0
   -7.5091    6.2231    0.7987 C   0  0  2  0  0  0  0  0  0  0  0  0
   -7.0389    7.4886    0.0614 C   0  0  0  0  0  0  0  0  0  0  0  0
   -7.3547    8.7535    0.8350 C   0  0  0  0  0  0  0  0  0  0  0  0
   -8.4258    9.5761    0.4560 C   0  0  0  0  0  0  0  0  0  0  0  0
   -8.7210   10.7313    1.1790 C   0  0  0  0  0  0  0  0  0  0  0  0
   -7.9458   11.0628    2.2879 C   0  0  0  0  0  0  0  0  0  0  0  0
   -8.2272   12.1707    2.9844 F   0  0  0  0  0  0  0  0  0  0  0  0
   -6.8812   10.2574    2.6827 C   0  0  0  0  0  0  0  0  0  0  0  0
   -6.5814    9.1042    1.9562 C   0  0  0  0  0  0  0  0  0  0  0  0
   -7.0058    4.9767    0.1891 N   0  0  0  0  0  0  0  0  0  0  0  0
   -5.6709    4.6517    0.1860 C   0  0  0  0  0  0  0  0  0  0  0  0
   -4.8215    5.3852    0.6960 O   0  0  0  0  0  0  0  0  0  0  0  0
   -5.2984    3.3185   -0.5130 C   0  0  1  0  0  0  0  0  0  0  0  0
   -5.8017    3.2506   -1.9671 C   0  0  0  0  0  0  0  0  0  0  0  0
   -5.4754    4.4634   -2.8142 C   0  0  0  0  0  0  0  0  0  0  0  0
   -6.4561    5.4340   -3.0724 C   0  0  0  0  0  0  0  0  0  0  0  0
   -6.1436    6.5844   -3.8040 C   0  0  0  0  0  0  0  0  0  0  0  0
   -4.8510    6.7770   -4.2920 C   0  0  0  0  0  0  0  0  0  0  0  0
   -3.8743    5.8121   -4.0597 C   0  0  0  0  0  0  0  0  0  0  0  0
   -4.1899    4.6716   -3.3234 C   0  0  0  0  0  0  0  0  0  0  0  0
   -3.2294    3.7614   -3.1158 F   0  0  0  0  0  0  0  0  0  0  0  0
   -3.8443    3.1574   -0.4308 N   0  0  0  0  0  0  0  0  0  0  0  0
   -3.2099    1.9459   -0.2997 C   0  0  0  0  0  0  0  0  0  0  0  0
   -3.7953    0.8781   -0.1337 O   0  0  0  0  0  0  0  0  0  0  0  0
   -1.7231    1.9948   -0.3029 C   0  0  0  0  0  0  0  0  0  0  0  0
   -1.0158    3.0563    0.2863 C   0  0  0  0  0  0  0  0  0  0  0  0
    0.3858    3.0642    0.2742 C   0  0  0  0  0  0  0  0  0  0  0  0
    1.0838    2.0295   -0.3552 C   0  0  0  0  0  0  0  0  0  0  0  0
    0.3748    0.9679   -0.9237 C   0  0  0  0  0  0  0  0  0  0  0  0
   -1.0207    0.9287   -0.8843 C   0  0  0  0  0  0  0  0  0  0  0  0
    1.1510   -0.0802   -1.6177 C   0  0  0  0  0  0  0  0  0  0  0  0
    2.0417    0.2438   -2.3950 O   0  0  0  0  0  0  0  0  0  0  0  0
    0.8454   -1.3806   -1.2812 N   0  0  0  0  0  0  0  0  0  0  0  0
    1.7735   -2.4259   -1.6882 C   0  0  0  0  0  0  0  0  0  0  0  0
    1.2333   -3.8475   -1.5080 C   0  0  2  0  0  0  0  0  0  0  0  0
   -0.0929   -4.0097   -2.0923 N   0  0  0  0  0  0  0  0  0  0  0  0
   -0.6285   -5.2532   -2.3369 C   0  0  0  0  0  0  0  0  0  0  0  0
   -0.0482   -6.2858   -2.0044 O   0  0  0  0  0  0  0  0  0  0  0  0
   -1.9371   -5.2296   -3.1497 C   0  0  1  0  0  0  0  0  0  0  0  0
   -2.5863   -6.6062   -3.2240 C   0  0  0  0  0  0  0  0  0  0  0  0
   -2.8953   -4.2399   -2.6364 N   0  0  0  0  0  0  0  0  0  0  0  0
   -3.2639   -3.1387   -3.3900 C   0  0  0  0  0  0  0  0  0  0  0  0
   -2.6230   -2.7743   -4.3752 O   0  0  0  0  0  0  0  0  0  0  0  0
    1.1828   -4.2087   -0.0074 C   0  0  0  0  0  0  0  0  0  0  0  0
    0.7914   -3.4309    0.8559 O   0  0  0  0  0  0  0  0  0  0  0  0
    1.5063   -5.5350    0.2279 N   0  0  0  0  0  0  0  0  0  0  0  0
    1.5009   -6.1044    1.5890 C   0  0  1  0  0  0  0  0  0  0  0  0
    1.3177   -7.6317    1.5098 C   0  0  0  0  0  0  0  0  0  0  0  0
    0.9992   -8.2890    2.8307 C   0  0  0  0  0  0  0  0  0  0  0  0
    1.9719   -9.0389    3.5081 C   0  0  0  0  0  0  0  0  0  0  0  0
    1.6775   -9.6376    4.7352 C   0  0  0  0  0  0  0  0  0  0  0  0
    0.4084   -9.4912    5.2968 C   0  0  0  0  0  0  0  0  0  0  0  0
   -0.5640   -8.7508    4.6290 C   0  0  0  0  0  0  0  0  0  0  0  0
   -0.2745   -8.1603    3.4014 C   0  0  0  0  0  0  0  0  0  0  0  0
    2.8495   -5.7915    2.2872 C   0  0  0  0  0  0  0  0  0  0  0  0
    3.0111   -5.8834    3.5034 O   0  0  0  0  0  0  0  0  0  0  0  0
    3.9063   -5.5584    1.4343 N   0  0  0  0  0  0  0  0  0  0  0  0
    5.2419   -5.2292    1.9290 C   0  0  1  0  0  0  0  0  0  0  0  0
    6.0570   -6.4930    2.2581 C   0  0  0  0  0  0  0  0  0  0  0  0
    6.5084   -7.3101    1.0651 C   0  0  0  0  0  0  0  0  0  0  0  0
    7.8499   -7.2914    0.6576 C   0  0  0  0  0  0  0  0  0  0  0  0
    8.2665   -8.0481   -0.4421 C   0  0  0  0  0  0  0  0  0  0  0  0
    7.3569   -8.8349   -1.1573 C   0  0  0  0  0  0  0  0  0  0  0  0
    7.7618   -9.5983   -2.2669 C   0  0  0  0  0  0  0  0  0  0  0  0
    6.8415  -10.3882   -2.9599 C   0  0  0  0  0  0  0  0  0  0  0  0
    5.5150  -10.4305   -2.5531 C   0  0  0  0  0  0  0  0  0  0  0  0
    5.0952   -9.6765   -1.4570 C   0  0  0  0  0  0  0  0  0  0  0  0
    6.0053   -8.8718   -0.7496 C   0  0  0  0  0  0  0  0  0  0  0  0
    5.6026   -8.1070    0.3578 C   0  0  0  0  0  0  0  0  0  0  0  0
    5.9266   -4.2686    0.9183 C   0  0  0  0  0  0  0  0  0  0  0  0
    5.3297   -3.8138   -0.0498 O   0  0  0  0  0  0  0  0  0  0  0  0
    7.2402   -3.9696    1.2391 N   0  0  0  0  0  0  0  0  0  0  0  0
    7.9949   -2.8045    0.7454 C   0  0  1  0  0  0  0  0  0  0  0  0
    7.7770   -2.3692   -0.7035 C   0  0  0  0  0  0  0  0  0  0  0  0
    8.0403   -3.4559   -1.7570 C   0  0  0  0  0  0  0  0  0  0  0  0
    9.5192   -3.7875   -1.9689 C   0  0  0  0  0  0  0  0  0  0  0  0
   10.0276   -4.6205   -0.8952 N   0  0  0  0  0  0  0  0  0  0  0  0
   11.2725   -4.5253   -0.3913 C   0  0  0  0  0  0  0  0  0  0  0  0
   12.0154   -3.4817   -0.5049 N   0  0  0  0  0  0  0  0  0  0  0  0
   11.6331   -5.6045    0.3280 N   0  0  0  0  0  0  0  0  0  0  0  0
    7.7662   -1.6676    1.7661 C   0  0  0  0  0  0  0  0  0  0  0  0
    6.9065   -1.7534    2.6471 O   0  0  0  0  0  0  0  0  0  0  0  0
    8.6726   -0.6231    1.7217 N   0  0  0  0  0  0  0  0  0  0  0  0
    8.8698    0.1720    2.9264 C   0  0  1  0  0  0  0  0  0  0  0  0
    9.8330   -0.5433    3.9008 C   0  0  0  0  0  0  0  0  0  0  0  0
   11.3174   -0.5524    3.4980 C   0  0  0  0  0  0  0  0  0  0  0  0
   11.7134   -1.6024    2.4635 C   0  0  0  0  0  0  0  0  0  0  0  0
   11.3089   -1.2743    1.0975 N   0  0  0  0  0  0  0  0  0  0  0  0
   12.0292   -0.3847    0.3636 C   0  0  0  0  0  0  0  0  0  0  0  0
   12.7308    0.5727    0.8461 N   0  0  0  0  0  0  0  0  0  0  0  0
   11.8944   -0.6067   -0.9552 N   0  0  0  0  0  0  0  0  0  0  0  0
    9.3197    1.6297    2.7498 C   0  0  0  0  0  0  0  0  0  0  0  0
    9.4383    2.3783    3.7235 O   0  0  0  0  0  0  0  0  0  0  0  0
    9.6161    2.0407    1.4630 N   0  0  0  0  0  0  0  0  0  0  0  0
   10.4983    3.2087    1.3401 C   0  0  1  0  0  0  0  0  0  0  0  0
   10.9318    3.4280   -0.1179 C   0  0  0  0  0  0  0  0  0  0  0  0
   12.2602    4.1878   -0.1596 C   0  0  0  0  0  0  0  0  0  0  0  0
   12.6034    4.6993   -1.5546 C   0  0  0  0  0  0  0  0  0  0  0  0
   13.9082    5.3320   -1.5101 N   0  0  0  0  0  0  0  0  0  0  0  0
   14.3542    6.1817   -2.4553 C   0  0  0  0  0  0  0  0  0  0  0  0
   13.9094    6.3755   -3.6324 N   0  0  0  0  0  0  0  0  0  0  0  0
   15.3897    6.9146   -2.0060 N   0  0  0  0  0  0  0  0  0  0  0  0
    9.7859    4.5009    1.8244 C   0  0  0  0  0  0  0  0  0  0  0  0
   10.3877    5.4195    2.3800 O   0  0  0  0  0  0  0  0  0  0  0  0
    8.4771    4.5895    1.4137 N   0  0  0  0  0  0  0  0  0  0  0  0
    7.5942    5.6852    1.7816 C   0  0  1  0  0  0  0  0  0  0  0  0
    8.0238    7.0296    1.1688 C   0  0  0  0  0  0  0  0  0  0  0  0
    8.1398    7.0188   -0.3640 C   0  0  0  0  0  0  0  0  0  0  0  0
    8.6708    8.3515   -0.9073 C   0  0  0  0  0  0  0  0  0  0  0  0
   10.1123    8.4490   -0.7351 N   0  0  0  0  0  0  0  0  0  0  0  0
   10.9761    8.2628   -1.7574 C   0  0  0  0  0  0  0  0  0  0  0  0
   10.7056    7.7432   -2.9029 N   0  0  0  0  0  0  0  0  0  0  0  0
   12.2270    8.6368   -1.4336 N   0  0  0  0  0  0  0  0  0  0  0  0
    6.1640    5.2671    1.3713 C   0  0  0  0  0  0  0  0  0  0  0  0
    5.9378    4.2465    0.7145 O   0  0  0  0  0  0  0  0  0  0  0  0
    5.1587    6.1101    1.7665 N   0  0  0  0  0  0  0  0  0  0  0  0
    3.7639    5.8697    1.3730 C   0  0  2  0  0  0  0  0  0  0  0  0
    3.0815    7.2404    1.3813 C   0  0  0  0  0  0  0  0  0  0  0  0
    3.1123    7.9123    0.1879 N   0  0  0  0  0  0  0  0  0  0  0  0
    2.6590    7.7984    2.3946 O   0  0  0  0  0  0  0  0  0  0  0  0
    3.0494    4.8726    2.3057 C   0  0  0  0  0  0  0  0  0  0  0  0
    2.2737    3.8666    1.5839 N   0  0  0  0  0  0  0  0  0  0  0  0
    1.1138    4.1868    0.9091 C   0  0  0  0  0  0  0  0  0  0  0  0
    0.6766    5.3257    0.8239 O   0  0  0  0  0  0  0  0  0  0  0  0
   -5.9145   -0.8467   -3.4528 H   0  0  0  0  0  0  0  0  0  0  0  0
   -4.2240   -0.4168   -3.1478 H   0  0  0  0  0  0  0  0  0  0  0  0
   -4.6846   -1.1557   -4.6903 H   0  0  0  0  0  0  0  0  0  0  0  0
   -5.3694   -3.2323   -3.5039 H   0  0  0  0  0  0  0  0  0  0  0  0
   -4.4875   -1.7627   -1.0680 H   0  0  0  0  0  0  0  0  0  0  0  0
   -6.2825   -1.3748    0.2817 H   0  0  0  0  0  0  0  0  0  0  0  0
   -6.1483   -2.5874    2.3534 H   0  0  0  0  0  0  0  0  0  0  0  0
   -4.8123   -3.0216    1.3012 H   0  0  0  0  0  0  0  0  0  0  0  0
   -5.4134   -4.9961    2.3363 H   0  0  0  0  0  0  0  0  0  0  0  0
   -6.0441   -5.1723    0.7068 H   0  0  0  0  0  0  0  0  0  0  0  0
   -7.8348   -4.1049    2.9385 H   0  0  0  0  0  0  0  0  0  0  0  0
   -8.3347   -4.9539    1.4727 H   0  0  0  0  0  0  0  0  0  0  0  0
   -8.2626   -6.1530    3.7363 H   0  0  0  0  0  0  0  0  0  0  0  0
   -7.1493   -8.5714    1.0021 H   0  0  0  0  0  0  0  0  0  0  0  0
   -7.3915   -9.2738    2.9992 H   0  0  0  0  0  0  0  0  0  0  0  0
   -7.2993   -8.1422    4.2200 H   0  0  0  0  0  0  0  0  0  0  0  0
   -8.4270   -3.4020    0.1838 H   0  0  0  0  0  0  0  0  0  0  0  0
  -10.6578   -1.7558    0.4632 H   0  0  0  0  0  0  0  0  0  0  0  0
  -10.2804   -3.8632   -0.8277 H   0  0  0  0  0  0  0  0  0  0  0  0
  -10.0645   -2.9500   -2.3085 H   0  0  0  0  0  0  0  0  0  0  0  0
  -11.8770   -3.1429   -3.7799 H   0  0  0  0  0  0  0  0  0  0  0  0
  -14.2711   -3.3614   -4.2370 H   0  0  0  0  0  0  0  0  0  0  0  0
  -16.6117   -3.5342   -3.4218 H   0  0  0  0  0  0  0  0  0  0  0  0
  -18.2162   -3.6217   -1.5528 H   0  0  0  0  0  0  0  0  0  0  0  0
  -17.4105   -3.4833    0.7902 H   0  0  0  0  0  0  0  0  0  0  0  0
  -15.0025   -3.2675    1.2618 H   0  0  0  0  0  0  0  0  0  0  0  0
  -12.6714   -3.1160    0.4570 H   0  0  0  0  0  0  0  0  0  0  0  0
  -10.2336   -0.2251   -2.0447 H   0  0  0  0  0  0  0  0  0  0  0  0
  -10.5337    2.0544   -1.8421 H   0  0  0  0  0  0  0  0  0  0  0  0
  -12.2703    1.0823   -3.1580 H   0  0  0  0  0  0  0  0  0  0  0  0
  -13.4358    1.0995   -1.8517 H   0  0  0  0  0  0  0  0  0  0  0  0
  -12.3538    3.5401   -3.3337 H   0  0  0  0  0  0  0  0  0  0  0  0
  -13.9757    2.8786   -3.4778 H   0  0  0  0  0  0  0  0  0  0  0  0
  -14.6872    3.9576   -1.5761 H   0  0  0  0  0  0  0  0  0  0  0  0
  -13.2512    4.9348   -1.7942 H   0  0  0  0  0  0  0  0  0  0  0  0
  -13.6775    2.5803    0.1099 H   0  0  0  0  0  0  0  0  0  0  0  0
  -13.1973    4.2312    0.4831 H   0  0  0  0  0  0  0  0  0  0  0  0
  -11.5321    5.3396    1.0344 H   0  0  0  0  0  0  0  0  0  0  0  0
  -12.1014    3.1119    2.4210 H   0  0  0  0  0  0  0  0  0  0  0  0
  -11.2563    5.6502    3.9304 H   0  0  0  0  0  0  0  0  0  0  0  0
  -12.8527    5.3635    3.2068 H   0  0  0  0  0  0  0  0  0  0  0  0
  -12.2826    4.3743    4.5692 H   0  0  0  0  0  0  0  0  0  0  0  0
  -10.6640    2.5708    3.9584 H   0  0  0  0  0  0  0  0  0  0  0  0
   -8.8928    4.6295    2.1569 H   0  0  0  0  0  0  0  0  0  0  0  0
   -7.1807    6.2291    1.8431 H   0  0  0  0  0  0  0  0  0  0  0  0
   -5.9571    7.4679   -0.1179 H   0  0  0  0  0  0  0  0  0  0  0  0
   -7.4890    7.5478   -0.9373 H   0  0  0  0  0  0  0  0  0  0  0  0
   -9.0436    9.3151   -0.4035 H   0  0  0  0  0  0  0  0  0  0  0  0
   -9.5436   11.3766    0.8870 H   0  0  0  0  0  0  0  0  0  0  0  0
   -6.2847   10.5416    3.5454 H   0  0  0  0  0  0  0  0  0  0  0  0
   -5.7436    8.4819    2.2608 H   0  0  0  0  0  0  0  0  0  0  0  0
   -7.6917    4.2484   -0.0269 H   0  0  0  0  0  0  0  0  0  0  0  0
   -5.7562    2.5085    0.0644 H   0  0  0  0  0  0  0  0  0  0  0  0
   -5.4015    2.3545   -2.4648 H   0  0  0  0  0  0  0  0  0  0  0  0
   -6.8921    3.1110   -1.9643 H   0  0  0  0  0  0  0  0  0  0  0  0
   -7.4713    5.3107   -2.6969 H   0  0  0  0  0  0  0  0  0  0  0  0
   -6.9095    7.3359   -3.9854 H   0  0  0  0  0  0  0  0  0  0  0  0
   -4.6100    7.6721   -4.8597 H   0  0  0  0  0  0  0  0  0  0  0  0
   -2.8649    5.9420   -4.4413 H   0  0  0  0  0  0  0  0  0  0  0  0
   -3.3009    3.9979   -0.6171 H   0  0  0  0  0  0  0  0  0  0  0  0
   -1.5457    3.8703    0.7764 H   0  0  0  0  0  0  0  0  0  0  0  0
    2.1683    2.0619   -0.4398 H   0  0  0  0  0  0  0  0  0  0  0  0
   -1.5644    0.1053   -1.3501 H   0  0  0  0  0  0  0  0  0  0  0  0
    0.3751   -1.5303   -0.3857 H   0  0  0  0  0  0  0  0  0  0  0  0
    2.0153   -2.2657   -2.7461 H   0  0  0  0  0  0  0  0  0  0  0  0
    2.6971   -2.2964   -1.1132 H   0  0  0  0  0  0  0  0  0  0  0  0
    1.9183   -4.5431   -2.0053 H   0  0  0  0  0  0  0  0  0  0  0  0
   -0.6463   -3.1806   -2.2950 H   0  0  0  0  0  0  0  0  0  0  0  0
   -1.6434   -4.9476   -4.1674 H   0  0  0  0  0  0  0  0  0  0  0  0
   -1.8836   -7.3471   -3.6210 H   0  0  0  0  0  0  0  0  0  0  0  0
   -2.9152   -6.9513   -2.2378 H   0  0  0  0  0  0  0  0  0  0  0  0
   -3.4627   -6.5859   -3.8780 H   0  0  0  0  0  0  0  0  0  0  0  0
   -3.5428   -4.5265   -1.9089 H   0  0  0  0  0  0  0  0  0  0  0  0
    1.2392   -6.1585   -0.5382 H   0  0  0  0  0  0  0  0  0  0  0  0
    0.6997   -5.6221    2.1585 H   0  0  0  0  0  0  0  0  0  0  0  0
    0.4976   -7.8689    0.8176 H   0  0  0  0  0  0  0  0  0  0  0  0
    2.2102   -8.0925    1.0715 H   0  0  0  0  0  0  0  0  0  0  0  0
    2.9745   -9.1476    3.0977 H   0  0  0  0  0  0  0  0  0  0  0  0
    2.4419  -10.2043    5.2595 H   0  0  0  0  0  0  0  0  0  0  0  0
    0.1848   -9.9466    6.2566 H   0  0  0  0  0  0  0  0  0  0  0  0
   -1.5506   -8.6304    5.0737 H   0  0  0  0  0  0  0  0  0  0  0  0
   -1.0475   -7.5832    2.8951 H   0  0  0  0  0  0  0  0  0  0  0  0
    3.6883   -5.2919    0.4822 H   0  0  0  0  0  0  0  0  0  0  0  0
    5.1117   -4.6523    2.8549 H   0  0  0  0  0  0  0  0  0  0  0  0
    5.4770   -7.1521    2.9180 H   0  0  0  0  0  0  0  0  0  0  0  0
    6.9399   -6.2111    2.8447 H   0  0  0  0  0  0  0  0  0  0  0  0
    8.5773   -6.6938    1.1982 H   0  0  0  0  0  0  0  0  0  0  0  0
    9.3128   -8.0267   -0.7342 H   0  0  0  0  0  0  0  0  0  0  0  0
    8.7968   -9.5808   -2.5982 H   0  0  0  0  0  0  0  0  0  0  0  0
    7.1693  -10.9728   -3.8161 H   0  0  0  0  0  0  0  0  0  0  0  0
    4.7982  -11.0472   -3.0909 H   0  0  0  0  0  0  0  0  0  0  0  0
    4.0516   -9.7216   -1.1558 H   0  0  0  0  0  0  0  0  0  0  0  0
    4.5635   -8.1421    0.6786 H   0  0  0  0  0  0  0  0  0  0  0  0
    7.4729   -4.1727    2.2012 H   0  0  0  0  0  0  0  0  0  0  0  0
    9.0403   -3.0917    0.8882 H   0  0  0  0  0  0  0  0  0  0  0  0
    6.7516   -1.9992   -0.8273 H   0  0  0  0  0  0  0  0  0  0  0  0
    8.4174   -1.5021   -0.9254 H   0  0  0  0  0  0  0  0  0  0  0  0
    7.4803   -4.3676   -1.5273 H   0  0  0  0  0  0  0  0  0  0  0  0
    7.6501   -3.0819   -2.7143 H   0  0  0  0  0  0  0  0  0  0  0  0
    9.6247   -4.3495   -2.9051 H   0  0  0  0  0  0  0  0  0  0  0  0
   10.0957   -2.8631   -2.0833 H   0  0  0  0  0  0  0  0  0  0  0  0
    9.5226   -5.4894   -0.7743 H   0  0  0  0  0  0  0  0  0  0  0  0
   12.9018   -3.6512   -0.0116 H   0  0  0  0  0  0  0  0  0  0  0  0
   11.3394   -6.4887   -0.0732 H   0  0  0  0  0  0  0  0  0  0  0  0
   12.6130   -5.6487    0.5878 H   0  0  0  0  0  0  0  0  0  0  0  0
    9.5164   -0.7744    1.1690 H   0  0  0  0  0  0  0  0  0  0  0  0
    7.8927    0.2476    3.4240 H   0  0  0  0  0  0  0  0  0  0  0  0
    9.7698   -0.0271    4.8706 H   0  0  0  0  0  0  0  0  0  0  0  0
    9.4998   -1.5714    4.0883 H   0  0  0  0  0  0  0  0  0  0  0  0
   11.6475    0.4473    3.2000 H   0  0  0  0  0  0  0  0  0  0  0  0
   11.8872   -0.7847    4.4132 H   0  0  0  0  0  0  0  0  0  0  0  0
   11.2685   -2.5656    2.7325 H   0  0  0  0  0  0  0  0  0  0  0  0
   12.8021   -1.7505    2.4901 H   0  0  0  0  0  0  0  0  0  0  0  0
   11.2405   -2.1493    0.5593 H   0  0  0  0  0  0  0  0  0  0  0  0
   13.1582    1.0960    0.0802 H   0  0  0  0  0  0  0  0  0  0  0  0
   11.8743   -1.6044   -1.1924 H   0  0  0  0  0  0  0  0  0  0  0  0
   12.5809   -0.1403   -1.5414 H   0  0  0  0  0  0  0  0  0  0  0  0
    9.7978    1.2806    0.8240 H   0  0  0  0  0  0  0  0  0  0  0  0
   11.3627    3.0336    1.9946 H   0  0  0  0  0  0  0  0  0  0  0  0
   10.1663    3.9887   -0.6685 H   0  0  0  0  0  0  0  0  0  0  0  0
   11.0487    2.4762   -0.6435 H   0  0  0  0  0  0  0  0  0  0  0  0
   12.2361    5.0411    0.5265 H   0  0  0  0  0  0  0  0  0  0  0  0
   13.0604    3.5301    0.1973 H   0  0  0  0  0  0  0  0  0  0  0  0
   11.8417    5.4131   -1.8804 H   0  0  0  0  0  0  0  0  0  0  0  0
   12.6263    3.8694   -2.2717 H   0  0  0  0  0  0  0  0  0  0  0  0
   14.1478    5.6625   -0.5798 H   0  0  0  0  0  0  0  0  0  0  0  0
   13.1328    5.7327   -3.8067 H   0  0  0  0  0  0  0  0  0  0  0  0
   16.0871    6.3463   -1.5461 H   0  0  0  0  0  0  0  0  0  0  0  0
   15.8082    7.4259   -2.7771 H   0  0  0  0  0  0  0  0  0  0  0  0
    8.0326    3.7266    1.1014 H   0  0  0  0  0  0  0  0  0  0  0  0
    7.6126    5.7633    2.8754 H   0  0  0  0  0  0  0  0  0  0  0  0
    7.3077    7.8060    1.4624 H   0  0  0  0  0  0  0  0  0  0  0  0
    8.9886    7.3279    1.5929 H   0  0  0  0  0  0  0  0  0  0  0  0
    7.1464    6.8405   -0.7946 H   0  0  0  0  0  0  0  0  0  0  0  0
    8.7879    6.2019   -0.7083 H   0  0  0  0  0  0  0  0  0  0  0  0
    8.4015    8.4515   -1.9646 H   0  0  0  0  0  0  0  0  0  0  0  0
    8.1939    9.1870   -0.3868 H   0  0  0  0  0  0  0  0  0  0  0  0
   10.3852    9.2223   -0.1373 H   0  0  0  0  0  0  0  0  0  0  0  0
   11.5494    7.7501   -3.4830 H   0  0  0  0  0  0  0  0  0  0  0  0
   12.4515    8.3856   -0.4761 H   0  0  0  0  0  0  0  0  0  0  0  0
   12.9445    8.2704   -2.0540 H   0  0  0  0  0  0  0  0  0  0  0  0
    5.3411    6.8555    2.4313 H   0  0  0  0  0  0  0  0  0  0  0  0
    3.7797    5.4770    0.3482 H   0  0  0  0  0  0  0  0  0  0  0  0
    3.2060    7.4037   -0.6863 H   0  0  0  0  0  0  0  0  0  0  0  0
    2.5557    8.7587    0.1635 H   0  0  0  0  0  0  0  0  0  0  0  0
    2.3621    5.3728    2.9948 H   0  0  0  0  0  0  0  0  0  0  0  0
    3.7753    4.3176    2.9106 H   0  0  0  0  0  0  0  0  0  0  0  0
    2.5455    2.8975    1.7074 H   0  0  0  0  0  0  0  0  0  0  0  0
  1  2  1  0
  2  3  1  0
  3  4  1  0
  4  5  2  0
  4  6  1  0
  6  7  1  0
  7  8  1  0
  8  9  1  0
  9 10  1  0
 10 11  1  0
 11 12  2  3
 11 13  1  0
  6 14  1  0
 14 15  1  0
 15 16  2  0
 15 17  1  0
 17 18  1  0
 18 19  1  0
 19 20  1  0
 20 21  2  0
 21 22  1  0
 22 23  2  0
 23 24  1  0
 24 25  2  0
 25 26  1  0
 26 27  2  0
 27 28  1  0
 17 29  1  0
 29 30  1  0
 30 31  2  0
 30 32  1  0
 32 33  1  0
 33 34  1  0
 34 35  1  0
 35 36  1  0
 36 37  1  0
 37 38  1  0
 38 39  2  0
 38 40  1  0
 40 41  1  0
 41 42  1  0
 41 43  1  0
 40 44  1  0
 44 45  1  0
 45 46  2  0
 45 47  1  0
 47 48  1  0
 48 49  1  0
 49 50  1  0
 50 51  2  0
 51 52  1  0
 52 53  1  0
 52 54  2  0
 54 55  1  0
 47 56  1  0
 56 57  1  0
 57 58  2  0
 57 59  1  0
 59 60  1  0
 60 61  1  0
 61 62  2  0
 62 63  1  0
 63 64  2  0
 64 65  1  0
 65 66  2  0
 66 67  1  0
 59 68  1  0
 68 69  1  0
 69 70  2  0
 69 71  1  0
 71 72  2  0
 72 73  1  0
 73 74  2  0
 74 75  1  0
 75 76  2  0
 75 77  1  0
 77 78  2  0
 77 79  1  0
 79 80  1  0
 80 81  1  0
 81 82  1  0
 82 83  1  0
 83 84  2  0
 83 85  1  0
 85 86  1  0
 85 87  1  0
 87 88  1  0
 88 89  2  0
 81 90  1  0
 90 91  2  0
 90 92  1  0
 92 93  1  0
 93 94  1  0
 94 95  1  0
 95 96  2  0
 96 97  1  0
 97 98  2  0
 98 99  1  0
 99100  2  0
 93101  1  0
101102  2  0
101103  1  0
103104  1  0
104105  1  0
105106  1  0
106107  1  0
107108  2  0
108109  1  0
109110  2  0
110111  1  0
111112  2  0
112113  1  0
113114  2  0
114115  1  0
104116  1  0
116117  2  0
116118  1  0
118119  1  0
119120  1  0
120121  1  0
121122  1  0
122123  1  0
123124  1  0
124125  2  3
124126  1  0
119127  1  0
127128  2  0
127129  1  0
129130  1  0
130131  1  0
131132  1  0
132133  1  0
133134  1  0
134135  1  0
135136  2  3
135137  1  0
130138  1  0
138139  2  0
138140  1  0
140141  1  0
141142  1  0
142143  1  0
143144  1  0
144145  1  0
145146  1  0
146147  2  3
146148  1  0
141149  1  0
149150  2  0
149151  1  0
151152  1  0
152153  1  0
153154  1  0
154155  1  0
155156  1  0
156157  1  0
157158  2  3
157159  1  0
152160  1  0
160161  2  0
160162  1  0
162163  1  0
163164  1  0
164165  1  0
164166  2  0
163167  1  0
167168  1  0
168169  1  0
169170  2  0
 88  2  1  0
100 95  1  0
115106  2  0
 28 19  2  0
 37 32  1  0
 55 49  2  0
 66 61  1  0
 76 71  1  0
114109  1  0
 27 22  1  0
169 73  1  0
  1171  1  0
  1172  1  0
  1173  1  0
  2174  1  6
  3175  1  0
  6176  1  6
  7177  1  0
  7178  1  0
  8179  1  0
  8180  1  0
  9181  1  0
  9182  1  0
 10183  1  0
 12184  1  0
 13185  1  0
 13186  1  0
 14187  1  0
 17188  1  1
 18189  1  0
 18190  1  0
 20191  1  0
 21192  1  0
 23193  1  0
 24194  1  0
 25195  1  0
 26196  1  0
 28197  1  0
 29198  1  0
 32199  1  6
 33200  1  0
 33201  1  0
 34202  1  0
 34203  1  0
 35204  1  0
 35205  1  0
 36206  1  0
 36207  1  0
 40208  1  6
 41209  1  6
 42210  1  0
 42211  1  0
 42212  1  0
 43213  1  0
 44214  1  0
 47215  1  1
 48216  1  0
 48217  1  0
 50218  1  0
 51219  1  0
 54220  1  0
 55221  1  0
 56222  1  0
 59223  1  1
 60224  1  0
 60225  1  0
 62226  1  0
 63227  1  0
 64228  1  0
 65229  1  0
 68230  1  0
 72231  1  0
 74232  1  0
 76233  1  0
 79234  1  0
 80235  1  0
 80236  1  0
 81237  1  6
 82238  1  0
 85239  1  6
 86240  1  0
 86241  1  0
 86242  1  0
 87243  1  0
 92244  1  0
 93245  1  1
 94246  1  0
 94247  1  0
 96248  1  0
 97249  1  0
 98250  1  0
 99251  1  0
100252  1  0
103253  1  0
104254  1  1
105255  1  0
105256  1  0
107257  1  0
108258  1  0
110259  1  0
111260  1  0
112261  1  0
113262  1  0
115263  1  0
118264  1  0
119265  1  6
120266  1  0
120267  1  0
121268  1  0
121269  1  0
122270  1  0
122271  1  0
123272  1  0
125273  1  0
126274  1  0
126275  1  0
129276  1  0
130277  1  1
131278  1  0
131279  1  0
132280  1  0
132281  1  0
133282  1  0
133283  1  0
134284  1  0
136285  1  0
137286  1  0
137287  1  0
140288  1  0
141289  1  1
142290  1  0
142291  1  0
143292  1  0
143293  1  0
144294  1  0
144295  1  0
145296  1  0
147297  1  0
148298  1  0
148299  1  0
151300  1  0
152301  1  1
153302  1  0
153303  1  0
154304  1  0
154305  1  0
155306  1  0
155307  1  0
156308  1  0
158309  1  0
159310  1  0
159311  1  0
162312  1  0
163313  1  6
165314  1  0
165315  1  0
167316  1  0
167317  1  0
168318  1  0
M  END
$$$$
