
     RDKit          3D

350361  0  0  0  0  0  0  0  0999 V2000
   12.0264    4.5118   -0.9120 C   0  0  0  0  0  0  0  0  0  0  0  0
   11.4420    5.7969   -0.3430 C   0  0  2  0  0  0  0  0  0  0  0  0
   12.2524    6.1991    0.7701 O   0  0  0  0  0  0  0  0  0  0  0  0
    9.9566    5.7362    0.0723 C   0  0  1  0  0  0  0  0  0  0  0  0
    9.0721    6.1762   -1.0211 N   0  0  0  0  0  0  0  0  0  0  0  0
    7.9751    6.9503   -0.7134 C   0  0  0  0  0  0  0  0  0  0  0  0
    7.8652    7.5510    0.3583 O   0  0  0  0  0  0  0  0  0  0  0  0
    6.8811    7.0534   -1.7913 C   0  0  2  0  0  0  0  0  0  0  0  0
    7.1108    8.2697   -2.6952 C   0  0  0  0  0  0  0  0  0  0  0  0
    8.3382    8.1786   -3.5697 C   0  0  0  0  0  0  0  0  0  0  0  0
    9.4818    8.9313   -3.2566 C   0  0  0  0  0  0  0  0  0  0  0  0
   10.6149    8.8628   -4.0674 C   0  0  0  0  0  0  0  0  0  0  0  0
   10.6102    8.0409   -5.1847 C   0  0  0  0  0  0  0  0  0  0  0  0
   11.6948    7.9830   -5.9678 F   0  0  0  0  0  0  0  0  0  0  0  0
    9.4893    7.2817   -5.5101 C   0  0  0  0  0  0  0  0  0  0  0  0
    8.3539    7.3506   -4.7008 C   0  0  0  0  0  0  0  0  0  0  0  0
    5.6495    7.2266   -1.0161 N   0  0  0  0  0  0  0  0  0  0  0  0
    4.6245    6.3150   -1.0236 C   0  0  0  0  0  0  0  0  0  0  0  0
    4.5102    5.4419   -1.8831 O   0  0  0  0  0  0  0  0  0  0  0  0
    3.6165    6.4743    0.1354 C   0  0  1  0  0  0  0  0  0  0  0  0
    2.9171    7.8521    0.0726 C   0  0  0  0  0  0  0  0  0  0  0  0
    3.6348    8.9518    0.8237 C   0  0  0  0  0  0  0  0  0  0  0  0
    3.8308    8.8515    2.2087 C   0  0  0  0  0  0  0  0  0  0  0  0
    4.4847    9.8656    2.9082 C   0  0  0  0  0  0  0  0  0  0  0  0
    4.9353   10.9983    2.2344 C   0  0  0  0  0  0  0  0  0  0  0  0
    4.7280   11.1189    0.8621 C   0  0  0  0  0  0  0  0  0  0  0  0
    4.0799   10.1026    0.1579 C   0  0  0  0  0  0  0  0  0  0  0  0
    2.6307    5.3918    0.0559 N   0  0  0  0  0  0  0  0  0  0  0  0
    1.8292    5.1235    1.1389 C   0  0  0  0  0  0  0  0  0  0  0  0
    2.0296    5.5663    2.2628 O   0  0  0  0  0  0  0  0  0  0  0  0
    0.6074    4.3429    0.8671 C   0  0  0  0  0  0  0  0  0  0  0  0
   -0.6042    4.9294    1.2464 C   0  0  0  0  0  0  0  0  0  0  0  0
   -1.8139    4.2638    1.0328 C   0  0  0  0  0  0  0  0  0  0  0  0
   -1.7843    2.9909    0.4540 C   0  0  0  0  0  0  0  0  0  0  0  0
   -0.5634    2.3925    0.0813 C   0  0  0  0  0  0  0  0  0  0  0  0
    0.6452    3.0746    0.2821 C   0  0  0  0  0  0  0  0  0  0  0  0
   -0.6334    1.0128   -0.4820 C   0  0  0  0  0  0  0  0  0  0  0  0
   -1.6438    0.3424   -0.3013 O   0  0  0  0  0  0  0  0  0  0  0  0
    0.4351    0.5557   -1.2332 N   0  0  0  0  0  0  0  0  0  0  0  0
    0.2636   -0.6515   -2.0419 C   0  0  0  0  0  0  0  0  0  0  0  0
    0.1063   -1.9525   -1.2310 C   0  0  2  0  0  0  0  0  0  0  0  0
    1.3726   -2.3812   -0.6165 N   0  0  0  0  0  0  0  0  0  0  0  0
    1.4085   -3.3381    0.3745 C   0  0  0  0  0  0  0  0  0  0  0  0
    0.3774   -3.7988    0.8627 O   0  0  0  0  0  0  0  0  0  0  0  0
    2.8257   -3.7248    0.8536 C   0  0  1  0  0  0  0  0  0  0  0  0
    2.7525   -5.0862    1.5855 C   0  0  0  0  0  0  0  0  0  0  0  0
    4.0671   -5.7173    1.9911 C   0  0  0  0  0  0  0  0  0  0  0  0
    5.0031   -5.0263    2.7711 C   0  0  0  0  0  0  0  0  0  0  0  0
    6.2042   -5.6321    3.1441 C   0  0  0  0  0  0  0  0  0  0  0  0
    6.4750   -6.9445    2.7639 C   0  0  0  0  0  0  0  0  0  0  0  0
    5.5396   -7.6543    2.0142 C   0  0  0  0  0  0  0  0  0  0  0  0
    4.3431   -7.0452    1.6323 C   0  0  0  0  0  0  0  0  0  0  0  0
    3.7403   -3.7601   -0.3016 N   0  0  0  0  0  0  0  0  0  0  0  0
    5.0413   -3.2970   -0.2077 C   0  0  0  0  0  0  0  0  0  0  0  0
    5.4272   -2.6451    0.7651 O   0  0  0  0  0  0  0  0  0  0  0  0
    5.9519   -3.6013   -1.4165 C   0  0  2  0  0  0  0  0  0  0  0  0
    6.0275   -5.1064   -1.7226 C   0  0  0  0  0  0  0  0  0  0  0  0
    6.8242   -5.7745   -0.7429 O   0  0  0  0  0  0  0  0  0  0  0  0
    7.3074   -3.1157   -1.1416 N   0  0  0  0  0  0  0  0  0  0  0  0
    8.1468   -2.7817   -2.1896 C   0  0  0  0  0  0  0  0  0  0  0  0
    7.7359   -2.6416   -3.3362 O   0  0  0  0  0  0  0  0  0  0  0  0
    9.6463   -2.7518   -1.8200 C   0  0  2  0  0  0  0  0  0  0  0  0
   10.1792   -4.1940   -1.7626 C   0  0  0  0  0  0  0  0  0  0  0  0
   11.7108   -4.2759   -1.8005 C   0  0  0  0  0  0  0  0  0  0  0  0
   12.2537   -5.7020   -1.7037 C   0  0  0  0  0  0  0  0  0  0  0  0
   12.0312   -6.4491   -2.9294 N   0  0  0  0  0  0  0  0  0  0  0  0
   10.9682   -7.2668   -3.1001 C   0  0  0  0  0  0  0  0  0  0  0  0
   10.1471   -7.6178   -2.1798 N   0  0  0  0  0  0  0  0  0  0  0  0
   10.8658   -7.6753   -4.3782 N   0  0  0  0  0  0  0  0  0  0  0  0
    9.8176   -2.0650   -0.5334 N   0  0  0  0  0  0  0  0  0  0  0  0
   10.9638   -1.3518   -0.2453 C   0  0  0  0  0  0  0  0  0  0  0  0
   11.8645   -1.2011   -1.0665 O   0  0  0  0  0  0  0  0  0  0  0  0
   11.0421   -0.7604    1.1715 C   0  0  2  0  0  0  0  0  0  0  0  0
   10.9049   -1.8233    2.2765 C   0  0  0  0  0  0  0  0  0  0  0  0
   12.1066   -2.7290    2.4004 C   0  0  0  0  0  0  0  0  0  0  0  0
   12.0116   -4.0940    2.1153 C   0  0  0  0  0  0  0  0  0  0  0  0
   13.1364   -4.9156    2.2254 C   0  0  0  0  0  0  0  0  0  0  0  0
   14.3770   -4.3914    2.6229 C   0  0  0  0  0  0  0  0  0  0  0  0
   15.5231   -5.1978    2.7294 C   0  0  0  0  0  0  0  0  0  0  0  0
   16.7475   -4.6551    3.1209 C   0  0  0  0  0  0  0  0  0  0  0  0
   16.8440   -3.2970    3.4127 C   0  0  0  0  0  0  0  0  0  0  0  0
   15.7145   -2.4826    3.3186 C   0  0  0  0  0  0  0  0  0  0  0  0
   14.4788   -3.0135    2.9248 C   0  0  0  0  0  0  0  0  0  0  0  0
   13.3389   -2.2021    2.8174 C   0  0  0  0  0  0  0  0  0  0  0  0
   10.0071    0.2599    1.3384 N   0  0  0  0  0  0  0  0  0  0  0  0
   10.3448    1.5320    1.7620 C   0  0  0  0  0  0  0  0  0  0  0  0
   11.5050    1.8533    2.0221 O   0  0  0  0  0  0  0  0  0  0  0  0
    9.1423    2.4734    1.9933 C   0  0  1  0  0  0  0  0  0  0  0  0
    8.5677    2.2352    3.3945 C   0  0  0  0  0  0  0  0  0  0  0  0
    9.4557    2.8312    4.4822 C   0  0  0  0  0  0  0  0  0  0  0  0
    9.6956    4.3109    4.2120 C   0  0  0  0  0  0  0  0  0  0  0  0
   10.2729    4.5527    2.8186 C   0  0  0  0  0  0  0  0  0  0  0  0
    9.4993    3.8861    1.7649 N   0  0  0  0  0  0  0  0  0  0  0  0
    9.4613    4.3182    0.4444 C   0  0  0  0  0  0  0  0  0  0  0  0
    9.0212    3.5862   -0.4527 O   0  0  0  0  0  0  0  0  0  0  0  0
   -0.3580   -3.0799   -2.1766 C   0  0  0  0  0  0  0  0  0  0  0  0
   -0.0515   -3.1267   -3.3682 O   0  0  0  0  0  0  0  0  0  0  0  0
   -1.0656   -4.0858   -1.5408 N   0  0  0  0  0  0  0  0  0  0  0  0
   -1.3025   -5.3854   -2.1882 C   0  0  1  0  0  0  0  0  0  0  0  0
   -0.2717   -6.3851   -1.6246 C   0  0  0  0  0  0  0  0  0  0  0  0
   -0.4533   -7.8312   -2.0135 C   0  0  0  0  0  0  0  0  0  0  0  0
   -0.1756   -8.2647   -3.3153 C   0  0  0  0  0  0  0  0  0  0  0  0
   -0.3544   -9.6055   -3.6638 C   0  0  0  0  0  0  0  0  0  0  0  0
   -0.8145  -10.5205   -2.7174 C   0  0  0  0  0  0  0  0  0  0  0  0
   -1.0946  -10.0984   -1.4211 C   0  0  0  0  0  0  0  0  0  0  0  0
   -0.9145   -8.7610   -1.0688 C   0  0  0  0  0  0  0  0  0  0  0  0
   -2.7407   -5.8928   -1.9659 C   0  0  0  0  0  0  0  0  0  0  0  0
   -3.2997   -6.6358   -2.7725 O   0  0  0  0  0  0  0  0  0  0  0  0
   -3.2905   -5.6102   -0.7296 N   0  0  0  0  0  0  0  0  0  0  0  0
   -4.5865   -6.2003   -0.3660 C   0  0  1  0  0  0  0  0  0  0  0  0
   -4.6328   -6.4867    1.1410 C   0  0  0  0  0  0  0  0  0  0  0  0
   -5.5298   -7.6369    1.5446 C   0  0  0  0  0  0  0  0  0  0  0  0
   -6.3816   -7.5058    2.6456 C   0  0  0  0  0  0  0  0  0  0  0  0
   -7.1908   -8.5727    3.0457 C   0  0  0  0  0  0  0  0  0  0  0  0
   -7.1873   -9.7849    2.3414 C   0  0  0  0  0  0  0  0  0  0  0  0
   -8.0435  -10.8413    2.6898 C   0  0  0  0  0  0  0  0  0  0  0  0
   -8.0295  -12.0379    1.9742 C   0  0  0  0  0  0  0  0  0  0  0  0
   -7.1477  -12.1990    0.9067 C   0  0  0  0  0  0  0  0  0  0  0  0
   -6.2906  -11.1578    0.5468 C   0  0  0  0  0  0  0  0  0  0  0  0
   -6.3076   -9.9429    1.2490 C   0  0  0  0  0  0  0  0  0  0  0  0
   -5.4723   -8.8743    0.8811 C   0  0  0  0  0  0  0  0  0  0  0  0
   -5.7155   -5.2426   -0.7966 C   0  0  0  0  0  0  0  0  0  0  0  0
   -5.6126   -4.0215   -0.7015 O   0  0  0  0  0  0  0  0  0  0  0  0
   -6.8541   -5.8554   -1.2768 N   0  0  0  0  0  0  0  0  0  0  0  0
   -7.8924   -5.1349   -2.0176 C   0  0  1  0  0  0  0  0  0  0  0  0
   -8.4351   -5.9858   -3.1766 C   0  0  0  0  0  0  0  0  0  0  0  0
   -9.5096   -7.0445   -2.9014 C   0  0  0  0  0  0  0  0  0  0  0  0
   -9.1278   -8.2120   -1.9906 C   0  0  0  0  0  0  0  0  0  0  0  0
   -9.0301   -7.8411   -0.5887 N   0  0  0  0  0  0  0  0  0  0  0  0
  -10.1068   -7.6059    0.2008 C   0  0  0  0  0  0  0  0  0  0  0  0
  -11.3400   -7.4195   -0.1137 N   0  0  0  0  0  0  0  0  0  0  0  0
   -9.7517   -7.5863    1.4949 N   0  0  0  0  0  0  0  0  0  0  0  0
   -8.9650   -4.4769   -1.1169 C   0  0  0  0  0  0  0  0  0  0  0  0
  -10.1767   -4.5413   -1.3076 O   0  0  0  0  0  0  0  0  0  0  0  0
   -8.4169   -3.6723   -0.1319 N   0  0  0  0  0  0  0  0  0  0  0  0
   -9.2315   -2.6295    0.4935 C   0  0  1  0  0  0  0  0  0  0  0  0
   -8.6165   -2.2895    1.8486 C   0  0  0  0  0  0  0  0  0  0  0  0
   -8.7290   -3.4275    2.8799 C   0  0  0  0  0  0  0  0  0  0  0  0
  -10.1702   -3.7005    3.3182 C   0  0  0  0  0  0  0  0  0  0  0  0
  -10.7445   -4.8444    2.6154 N   0  0  0  0  0  0  0  0  0  0  0  0
  -11.9918   -5.2655    2.9503 C   0  0  0  0  0  0  0  0  0  0  0  0
  -12.6599   -4.8122    3.9430 N   0  0  0  0  0  0  0  0  0  0  0  0
  -12.4471   -6.2647    2.1769 N   0  0  0  0  0  0  0  0  0  0  0  0
   -9.3306   -1.4306   -0.4922 C   0  0  0  0  0  0  0  0  0  0  0  0
   -8.8938   -1.4939   -1.6439 O   0  0  0  0  0  0  0  0  0  0  0  0
  -10.0502   -0.3346   -0.0464 N   0  0  0  0  0  0  0  0  0  0  0  0
  -10.3198    0.7593   -0.9786 C   0  0  1  0  0  0  0  0  0  0  0  0
  -11.6686    1.4407   -0.6718 C   0  0  0  0  0  0  0  0  0  0  0  0
  -11.7147    2.1966    0.6560 C   0  0  0  0  0  0  0  0  0  0  0  0
  -12.3288    1.3579    1.7831 C   0  0  0  0  0  0  0  0  0  0  0  0
  -11.8917    1.8551    3.0760 N   0  0  0  0  0  0  0  0  0  0  0  0
  -10.6316    1.6257    3.5077 C   0  0  0  0  0  0  0  0  0  0  0  0
   -9.7794    0.8796    2.9035 N   0  0  0  0  0  0  0  0  0  0  0  0
  -10.3712    2.2790    4.6567 N   0  0  0  0  0  0  0  0  0  0  0  0
   -9.0917    1.7046   -1.1042 C   0  0  0  0  0  0  0  0  0  0  0  0
   -7.9649    1.4084   -0.7041 O   0  0  0  0  0  0  0  0  0  0  0  0
   -9.3244    2.8821   -1.7978 N   0  0  0  0  0  0  0  0  0  0  0  0
   -8.2094    3.7917   -2.0251 C   0  0  1  0  0  0  0  0  0  0  0  0
   -8.5073    4.8039   -3.1440 C   0  0  0  0  0  0  0  0  0  0  0  0
   -9.6715    5.7594   -2.8381 C   0  0  0  0  0  0  0  0  0  0  0  0
   -9.8359    6.8109   -3.9378 C   0  0  0  0  0  0  0  0  0  0  0  0
  -10.9673    7.6755   -3.6507 N   0  0  0  0  0  0  0  0  0  0  0  0
  -12.2600    7.2876   -3.7030 C   0  0  0  0  0  0  0  0  0  0  0  0
  -12.7644    6.2396   -4.2413 N   0  0  0  0  0  0  0  0  0  0  0  0
  -13.0758    8.1819   -3.1139 N   0  0  0  0  0  0  0  0  0  0  0  0
   -7.8382    4.5196   -0.7215 C   0  0  0  0  0  0  0  0  0  0  0  0
   -8.6139    4.6407    0.2257 O   0  0  0  0  0  0  0  0  0  0  0  0
   -6.5884    5.0924   -0.7346 N   0  0  0  0  0  0  0  0  0  0  0  0
   -6.1165    5.9135    0.3742 C   0  0  2  0  0  0  0  0  0  0  0  0
   -5.1293    6.9375   -0.2119 C   0  0  0  0  0  0  0  0  0  0  0  0
   -4.6298    6.7956   -1.3296 O   0  0  0  0  0  0  0  0  0  0  0  0
   -4.8883    8.0348    0.5808 N   0  0  0  0  0  0  0  0  0  0  0  0
   -4.0085    9.1267    0.1617 C   0  0  2  0  0  0  0  0  0  0  0  0
   -2.5460    8.8090    0.5310 C   0  0  0  0  0  0  0  0  0  0  0  0
   -2.3985    8.6477    1.9393 O   0  0  0  0  0  0  0  0  0  0  0  0
   -4.4707   10.4505    0.7997 C   0  0  0  0  0  0  0  0  0  0  0  0
   -5.6641   11.1165    0.0960 C   0  0  0  0  0  0  0  0  0  0  0  0
   -6.9671   10.3107    0.1235 C   0  0  0  0  0  0  0  0  0  0  0  0
   -8.1477   11.1412   -0.3847 C   0  0  0  0  0  0  0  0  0  0  0  0
   -9.3577   10.3244   -0.4435 N   0  0  0  0  0  0  0  0  0  0  0  0
   -5.5268    5.0571    1.5044 C   0  0  0  0  0  0  0  0  0  0  0  0
   -4.2800    4.3851    1.1521 N   0  0  0  0  0  0  0  0  0  0  0  0
   -3.0650    4.9532    1.4629 C   0  0  0  0  0  0  0  0  0  0  0  0
   -2.9892    6.0095    2.0950 O   0  0  0  0  0  0  0  0  0  0  0  0
   12.0403    3.7095   -0.1671 H   0  0  0  0  0  0  0  0  0  0  0  0
   13.0703    4.6731   -1.2048 H   0  0  0  0  0  0  0  0  0  0  0  0
   11.4724    4.1788   -1.7953 H   0  0  0  0  0  0  0  0  0  0  0  0
   11.5706    6.5809   -1.0999 H   0  0  0  0  0  0  0  0  0  0  0  0
   12.1123    7.1540    0.8981 H   0  0  0  0  0  0  0  0  0  0  0  0
    9.7921    6.4116    0.9131 H   0  0  0  0  0  0  0  0  0  0  0  0
    8.9494    5.4902   -1.7608 H   0  0  0  0  0  0  0  0  0  0  0  0
    6.8359    6.1208   -2.3632 H   0  0  0  0  0  0  0  0  0  0  0  0
    6.2378    8.4142   -3.3457 H   0  0  0  0  0  0  0  0  0  0  0  0
    7.1684    9.1808   -2.0839 H   0  0  0  0  0  0  0  0  0  0  0  0
    9.4950    9.5799   -2.3828 H   0  0  0  0  0  0  0  0  0  0  0  0
   11.4990    9.4509   -3.8370 H   0  0  0  0  0  0  0  0  0  0  0  0
    9.5102    6.6500   -6.3898 H   0  0  0  0  0  0  0  0  0  0  0  0
    7.4792    6.7599   -4.9685 H   0  0  0  0  0  0  0  0  0  0  0  0
    5.7703    7.7837   -0.1708 H   0  0  0  0  0  0  0  0  0  0  0  0
    4.1686    6.3348    1.0719 H   0  0  0  0  0  0  0  0  0  0  0  0
    1.9041    7.7955    0.4950 H   0  0  0  0  0  0  0  0  0  0  0  0
    2.7754    8.1456   -0.9776 H   0  0  0  0  0  0  0  0  0  0  0  0
    3.4664    7.9825    2.7569 H   0  0  0  0  0  0  0  0  0  0  0  0
    4.6327    9.7743    3.9809 H   0  0  0  0  0  0  0  0  0  0  0  0
    5.4381   11.7912    2.7836 H   0  0  0  0  0  0  0  0  0  0  0  0
    5.0670   12.0119    0.3428 H   0  0  0  0  0  0  0  0  0  0  0  0
    3.9215   10.2207   -0.9103 H   0  0  0  0  0  0  0  0  0  0  0  0
    2.3907    5.0581   -0.8705 H   0  0  0  0  0  0  0  0  0  0  0  0
   -0.5928    5.9141    1.7155 H   0  0  0  0  0  0  0  0  0  0  0  0
   -2.7000    2.4261    0.3030 H   0  0  0  0  0  0  0  0  0  0  0  0
    1.6056    2.6220    0.0488 H   0  0  0  0  0  0  0  0  0  0  0  0
    1.0991    1.2347   -1.5784 H   0  0  0  0  0  0  0  0  0  0  0  0
    1.1377   -0.7133   -2.6983 H   0  0  0  0  0  0  0  0  0  0  0  0
   -0.6157   -0.4901   -2.6777 H   0  0  0  0  0  0  0  0  0  0  0  0
   -0.6382   -1.8449   -0.4369 H   0  0  0  0  0  0  0  0  0  0  0  0
    2.2476   -2.1049   -1.0449 H   0  0  0  0  0  0  0  0  0  0  0  0
    3.1555   -2.9455    1.5532 H   0  0  0  0  0  0  0  0  0  0  0  0
    2.1390   -4.9834    2.4900 H   0  0  0  0  0  0  0  0  0  0  0  0
    2.2120   -5.7941    0.9399 H   0  0  0  0  0  0  0  0  0  0  0  0
    4.8138   -4.0032    3.0911 H   0  0  0  0  0  0  0  0  0  0  0  0
    6.9279   -5.0818    3.7413 H   0  0  0  0  0  0  0  0  0  0  0  0
    7.4052   -7.4183    3.0619 H   0  0  0  0  0  0  0  0  0  0  0  0
    5.7437   -8.6836    1.7271 H   0  0  0  0  0  0  0  0  0  0  0  0
    3.6224   -7.6256    1.0579 H   0  0  0  0  0  0  0  0  0  0  0  0
    3.4631   -4.3298   -1.0911 H   0  0  0  0  0  0  0  0  0  0  0  0
    5.5336   -3.0636   -2.2761 H   0  0  0  0  0  0  0  0  0  0  0  0
    6.5215   -5.2611   -2.6877 H   0  0  0  0  0  0  0  0  0  0  0  0
    5.0483   -5.5922   -1.7693 H   0  0  0  0  0  0  0  0  0  0  0  0
    6.2735   -5.9705    0.0343 H   0  0  0  0  0  0  0  0  0  0  0  0
    7.7421   -3.5956   -0.3629 H   0  0  0  0  0  0  0  0  0  0  0  0
   10.1618   -2.1731   -2.5995 H   0  0  0  0  0  0  0  0  0  0  0  0
    9.8129   -4.6990   -0.8575 H   0  0  0  0  0  0  0  0  0  0  0  0
    9.7698   -4.7506   -2.6157 H   0  0  0  0  0  0  0  0  0  0  0  0
   12.1258   -3.7203   -0.9552 H   0  0  0  0  0  0  0  0  0  0  0  0
   12.0828   -3.7930   -2.7147 H   0  0  0  0  0  0  0  0  0  0  0  0
   13.3372   -5.6429   -1.5475 H   0  0  0  0  0  0  0  0  0  0  0  0
   11.8480   -6.2194   -0.8247 H   0  0  0  0  0  0  0  0  0  0  0  0
   12.3010   -5.9472   -3.7661 H   0  0  0  0  0  0  0  0  0  0  0  0
    9.4193   -8.2162   -2.5677 H   0  0  0  0  0  0  0  0  0  0  0  0
   10.2185   -8.4362   -4.5294 H   0  0  0  0  0  0  0  0  0  0  0  0
   11.7603   -7.8803   -4.8080 H   0  0  0  0  0  0  0  0  0  0  0  0
    9.0459   -2.0576    0.1164 H   0  0  0  0  0  0  0  0  0  0  0  0
   12.0274   -0.2816    1.2430 H   0  0  0  0  0  0  0  0  0  0  0  0
   10.7623   -1.3304    3.2473 H   0  0  0  0  0  0  0  0  0  0  0  0
    9.9999   -2.4244    2.1262 H   0  0  0  0  0  0  0  0  0  0  0  0
   11.0681   -4.5322    1.8016 H   0  0  0  0  0  0  0  0  0  0  0  0
   13.0366   -5.9752    1.9963 H   0  0  0  0  0  0  0  0  0  0  0  0
   15.4684   -6.2600    2.5016 H   0  0  0  0  0  0  0  0  0  0  0  0
   17.6262   -5.2888    3.1931 H   0  0  0  0  0  0  0  0  0  0  0  0
   17.7960   -2.8697    3.7136 H   0  0  0  0  0  0  0  0  0  0  0  0
   15.8093   -1.4225    3.5502 H   0  0  0  0  0  0  0  0  0  0  0  0
   13.4176   -1.1421    3.0555 H   0  0  0  0  0  0  0  0  0  0  0  0
    9.1062    0.1324    0.8912 H   0  0  0  0  0  0  0  0  0  0  0  0
    8.3628    2.1906    1.2747 H   0  0  0  0  0  0  0  0  0  0  0  0
    8.4339    1.1623    3.5830 H   0  0  0  0  0  0  0  0  0  0  0  0
    7.5751    2.6978    3.4581 H   0  0  0  0  0  0  0  0  0  0  0  0
    8.9769    2.7053    5.4602 H   0  0  0  0  0  0  0  0  0  0  0  0
   10.4126    2.2986    4.5283 H   0  0  0  0  0  0  0  0  0  0  0  0
   10.3715    4.7226    4.9689 H   0  0  0  0  0  0  0  0  0  0  0  0
    8.7452    4.8501    4.3061 H   0  0  0  0  0  0  0  0  0  0  0  0
   10.3059    5.6308    2.6560 H   0  0  0  0  0  0  0  0  0  0  0  0
   11.3061    4.1972    2.7585 H   0  0  0  0  0  0  0  0  0  0  0  0
   -1.0234   -4.0745   -0.5209 H   0  0  0  0  0  0  0  0  0  0  0  0
   -1.1725   -5.2751   -3.2711 H   0  0  0  0  0  0  0  0  0  0  0  0
    0.7365   -6.0738   -1.9313 H   0  0  0  0  0  0  0  0  0  0  0  0
   -0.2640   -6.3186   -0.5275 H   0  0  0  0  0  0  0  0  0  0  0  0
    0.1736   -7.5651   -4.0713 H   0  0  0  0  0  0  0  0  0  0  0  0
   -0.1397   -9.9358   -4.6750 H   0  0  0  0  0  0  0  0  0  0  0  0
   -0.9610  -11.5611   -2.9932 H   0  0  0  0  0  0  0  0  0  0  0  0
   -1.4552  -10.8091   -0.6817 H   0  0  0  0  0  0  0  0  0  0  0  0
   -1.1433   -8.4467   -0.0527 H   0  0  0  0  0  0  0  0  0  0  0  0
   -3.1123   -4.6696   -0.3879 H   0  0  0  0  0  0  0  0  0  0  0  0
   -4.6993   -7.1189   -0.9470 H   0  0  0  0  0  0  0  0  0  0  0  0
   -4.9362   -5.5758    1.6748 H   0  0  0  0  0  0  0  0  0  0  0  0
   -3.6259   -6.7324    1.5079 H   0  0  0  0  0  0  0  0  0  0  0  0
   -6.4273   -6.5741    3.2074 H   0  0  0  0  0  0  0  0  0  0  0  0
   -7.8576   -8.4379    3.8972 H   0  0  0  0  0  0  0  0  0  0  0  0
   -8.7424  -10.7293    3.5190 H   0  0  0  0  0  0  0  0  0  0  0  0
   -8.7061  -12.8432    2.2497 H   0  0  0  0  0  0  0  0  0  0  0  0
   -7.1346  -13.1320    0.3515 H   0  0  0  0  0  0  0  0  0  0  0  0
   -5.6128  -11.3025   -0.2919 H   0  0  0  0  0  0  0  0  0  0  0  0
   -4.7671   -9.0245    0.0647 H   0  0  0  0  0  0  0  0  0  0  0  0
   -7.0879   -6.7864   -0.9532 H   0  0  0  0  0  0  0  0  0  0  0  0
   -7.3834   -4.2847   -2.4949 H   0  0  0  0  0  0  0  0  0  0  0  0
   -7.5936   -6.4710   -3.6850 H   0  0  0  0  0  0  0  0  0  0  0  0
   -8.8682   -5.2978   -3.9150 H   0  0  0  0  0  0  0  0  0  0  0  0
   -9.7710   -7.4808   -3.8742 H   0  0  0  0  0  0  0  0  0  0  0  0
  -10.4273   -6.5579   -2.5643 H   0  0  0  0  0  0  0  0  0  0  0  0
   -9.8647   -9.0170   -2.0964 H   0  0  0  0  0  0  0  0  0  0  0  0
   -8.1634   -8.6248   -2.3166 H   0  0  0  0  0  0  0  0  0  0  0  0
   -8.4151   -8.4783   -0.0803 H   0  0  0  0  0  0  0  0  0  0  0  0
  -11.4540   -7.4616   -1.1258 H   0  0  0  0  0  0  0  0  0  0  0  0
  -10.5236   -7.2903    2.0936 H   0  0  0  0  0  0  0  0  0  0  0  0
   -8.9471   -7.0010    1.6793 H   0  0  0  0  0  0  0  0  0  0  0  0
   -7.4434   -3.4182   -0.3070 H   0  0  0  0  0  0  0  0  0  0  0  0
  -10.2581   -2.9900    0.6108 H   0  0  0  0  0  0  0  0  0  0  0  0
   -7.5574   -2.0379    1.7198 H   0  0  0  0  0  0  0  0  0  0  0  0
   -9.0872   -1.4053    2.2746 H   0  0  0  0  0  0  0  0  0  0  0  0
   -8.2464   -4.3398    2.5104 H   0  0  0  0  0  0  0  0  0  0  0  0
   -8.1633   -3.1100    3.7674 H   0  0  0  0  0  0  0  0  0  0  0  0
  -10.1654   -3.9151    4.3930 H   0  0  0  0  0  0  0  0  0  0  0  0
  -10.7968   -2.8176    3.1613 H   0  0  0  0  0  0  0  0  0  0  0  0
  -10.5820   -4.8451    1.6132 H   0  0  0  0  0  0  0  0  0  0  0  0
  -13.5374   -5.3328    4.0124 H   0  0  0  0  0  0  0  0  0  0  0  0
  -12.0687   -6.3990    1.2290 H   0  0  0  0  0  0  0  0  0  0  0  0
  -13.4349   -6.4734    2.2016 H   0  0  0  0  0  0  0  0  0  0  0  0
   -9.9498   -0.0777    0.9380 H   0  0  0  0  0  0  0  0  0  0  0  0
  -10.4330    0.3141   -1.9789 H   0  0  0  0  0  0  0  0  0  0  0  0
  -11.9038    2.1500   -1.4713 H   0  0  0  0  0  0  0  0  0  0  0  0
  -12.4723    0.6907   -0.7054 H   0  0  0  0  0  0  0  0  0  0  0  0
  -10.7119    2.5476    0.9191 H   0  0  0  0  0  0  0  0  0  0  0  0
  -12.3185    3.1062    0.5433 H   0  0  0  0  0  0  0  0  0  0  0  0
  -12.0832    0.2941    1.6905 H   0  0  0  0  0  0  0  0  0  0  0  0
  -13.4228    1.4241    1.7208 H   0  0  0  0  0  0  0  0  0  0  0  0
  -12.2190    2.7940    3.2645 H   0  0  0  0  0  0  0  0  0  0  0  0
   -8.9027    0.8879    3.4384 H   0  0  0  0  0  0  0  0  0  0  0  0
  -11.1721    2.3087    5.2779 H   0  0  0  0  0  0  0  0  0  0  0  0
   -9.5430    1.9605    5.1441 H   0  0  0  0  0  0  0  0  0  0  0  0
  -10.2085    3.3243   -1.5902 H   0  0  0  0  0  0  0  0  0  0  0  0
   -7.3442    3.1893   -2.3293 H   0  0  0  0  0  0  0  0  0  0  0  0
   -8.7319    4.2641   -4.0704 H   0  0  0  0  0  0  0  0  0  0  0  0
   -7.6093    5.4026   -3.3396 H   0  0  0  0  0  0  0  0  0  0  0  0
   -9.5086    6.2719   -1.8834 H   0  0  0  0  0  0  0  0  0  0  0  0
  -10.5981    5.1845   -2.7286 H   0  0  0  0  0  0  0  0  0  0  0  0
   -9.9573    6.3412   -4.9173 H   0  0  0  0  0  0  0  0  0  0  0  0
   -8.9363    7.4319   -3.9942 H   0  0  0  0  0  0  0  0  0  0  0  0
  -10.7874    8.3104   -2.8739 H   0  0  0  0  0  0  0  0  0  0  0  0
  -12.0276    5.6836   -4.6748 H   0  0  0  0  0  0  0  0  0  0  0  0
  -14.0364    7.8762   -3.2573 H   0  0  0  0  0  0  0  0  0  0  0  0
  -12.9505    9.1061   -3.5038 H   0  0  0  0  0  0  0  0  0  0  0  0
   -5.9950    5.0498   -1.5584 H   0  0  0  0  0  0  0  0  0  0  0  0
   -6.9827    6.4647    0.7654 H   0  0  0  0  0  0  0  0  0  0  0  0
   -5.0662    7.9624    1.5785 H   0  0  0  0  0  0  0  0  0  0  0  0
   -4.0586    9.2152   -0.9307 H   0  0  0  0  0  0  0  0  0  0  0  0
   -2.1969    7.8959    0.0368 H   0  0  0  0  0  0  0  0  0  0  0  0
   -1.8873    9.6255    0.2154 H   0  0  0  0  0  0  0  0  0  0  0  0
   -2.6448    7.7153    2.1357 H   0  0  0  0  0  0  0  0  0  0  0  0
   -3.6446   11.1713    0.7677 H   0  0  0  0  0  0  0  0  0  0  0  0
   -4.7131   10.3023    1.8604 H   0  0  0  0  0  0  0  0  0  0  0  0
   -5.8355   12.0876    0.5756 H   0  0  0  0  0  0  0  0  0  0  0  0
   -5.3958   11.3300   -0.9465 H   0  0  0  0  0  0  0  0  0  0  0  0
   -6.8639    9.4194   -0.5057 H   0  0  0  0  0  0  0  0  0  0  0  0
   -7.1707    9.9721    1.1480 H   0  0  0  0  0  0  0  0  0  0  0  0
   -7.9330   11.5343   -1.3843 H   0  0  0  0  0  0  0  0  0  0  0  0
   -8.3216   11.9948    0.2787 H   0  0  0  0  0  0  0  0  0  0  0  0
  -10.1486   10.9189   -0.6929 H   0  0  0  0  0  0  0  0  0  0  0  0
   -9.5703    9.9662    0.4897 H   0  0  0  0  0  0  0  0  0  0  0  0
   -6.2299    4.2660    1.7933 H   0  0  0  0  0  0  0  0  0  0  0  0
   -5.3576    5.6787    2.3879 H   0  0  0  0  0  0  0  0  0  0  0  0
   -4.3564    3.5469    0.5903 H   0  0  0  0  0  0  0  0  0  0  0  0
  1  2  1  0
  2  3  1  0
  2  4  1  0
  4  5  1  0
  5  6  1  0
  6  7  2  0
  6  8  1  0
  8  9  1  0
  9 10  1  0
 10 11  1  0
 11 12  2  0
 12 13  1  0
 13 14  1  0
 13 15  2  0
 15 16  1  0
  8 17  1  0
 17 18  1  0
 18 19  2  0
 18 20  1  0
 20 21  1  0
 21 22  1  0
 22 23  2  0
 23 24  1  0
 24 25  2  0
 25 26  1  0
 26 27  2  0
 20 28  1  0
 28 29  1  0
 29 30  2  0
 29 31  1  0
 31 32  2  0
 32 33  1  0
 33 34  2  0
 34 35  1  0
 35 36  2  0
 35 37  1  0
 37 38  2  0
 37 39  1  0
 39 40  1  0
 40 41  1  0
 41 42  1  0
 42 43  1  0
 43 44  2  0
 43 45  1  0
 45 46  1  0
 46 47  1  0
 47 48  2  0
 48 49  1  0
 49 50  2  0
 50 51  1  0
 51 52  2  0
 45 53  1  0
 53 54  1  0
 54 55  2  0
 54 56  1  0
 56 57  1  0
 57 58  1  0
 56 59  1  0
 59 60  1  0
 60 61  2  0
 60 62  1  0
 62 63  1  0
 63 64  1  0
 64 65  1  0
 65 66  1  0
 66 67  1  0
 67 68  2  3
 67 69  1  0
 62 70  1  0
 70 71  1  0
 71 72  2  0
 71 73  1  0
 73 74  1  0
 74 75  1  0
 75 76  1  0
 76 77  2  0
 77 78  1  0
 78 79  2  0
 79 80  1  0
 80 81  2  0
 81 82  1  0
 82 83  2  0
 83 84  1  0
 73 85  1  0
 85 86  1  0
 86 87  2  0
 86 88  1  0
 88 89  1  0
 89 90  1  0
 90 91  1  0
 91 92  1  0
 92 93  1  0
 93 94  1  0
 94 95  2  0
 41 96  1  0
 96 97  2  0
 96 98  1  0
 98 99  1  0
 99100  1  0
100101  1  0
101102  2  0
102103  1  0
103104  2  0
104105  1  0
105106  2  0
 99107  1  0
107108  2  0
107109  1  0
109110  1  0
110111  1  0
111112  1  0
112113  1  0
113114  2  0
114115  1  0
115116  2  0
116117  1  0
117118  2  0
118119  1  0
119120  2  0
120121  1  0
110122  1  0
122123  2  0
122124  1  0
124125  1  0
125126  1  0
126127  1  0
127128  1  0
128129  1  0
129130  1  0
130131  2  3
130132  1  0
125133  1  0
133134  2  0
133135  1  0
135136  1  0
136137  1  0
137138  1  0
138139  1  0
139140  1  0
140141  1  0
141142  2  3
141143  1  0
136144  1  0
144145  2  0
144146  1  0
146147  1  0
147148  1  0
148149  1  0
149150  1  0
150151  1  0
151152  1  0
152153  2  3
152154  1  0
147155  1  0
155156  2  0
155157  1  0
157158  1  0
158159  1  0
159160  1  0
160161  1  0
161162  1  0
162163  1  0
163164  2  3
163165  1  0
158166  1  0
166167  2  0
166168  1  0
168169  1  0
169170  1  0
170171  2  0
170172  1  0
172173  1  0
173174  1  0
174175  1  0
173176  1  0
176177  1  0
177178  1  0
178179  1  0
179180  1  0
169181  1  0
181182  1  0
182183  1  0
183184  2  0
 94  4  1  0
106101  1  0
121112  2  0
 16 10  2  0
 27 22  1  0
 36 31  1  0
 52 47  1  0
 84 75  2  0
 93 88  1  0
120115  1  0
183 33  1  0
 83 78  1  0
  1185  1  0
  1186  1  0
  1187  1  0
  2188  1  6
  3189  1  0
  4190  1  1
  5191  1  0
  8192  1  6
  9193  1  0
  9194  1  0
 11195  1  0
 12196  1  0
 15197  1  0
 16198  1  0
 17199  1  0
 20200  1  1
 21201  1  0
 21202  1  0
 23203  1  0
 24204  1  0
 25205  1  0
 26206  1  0
 27207  1  0
 28208  1  0
 32209  1  0
 34210  1  0
 36211  1  0
 39212  1  0
 40213  1  0
 40214  1  0
 41215  1  1
 42216  1  0
 45217  1  1
 46218  1  0
 46219  1  0
 48220  1  0
 49221  1  0
 50222  1  0
 51223  1  0
 52224  1  0
 53225  1  0
 56226  1  6
 57227  1  0
 57228  1  0
 58229  1  0
 59230  1  0
 62231  1  6
 63232  1  0
 63233  1  0
 64234  1  0
 64235  1  0
 65236  1  0
 65237  1  0
 66238  1  0
 68239  1  0
 69240  1  0
 69241  1  0
 70242  1  0
 73243  1  6
 74244  1  0
 74245  1  0
 76246  1  0
 77247  1  0
 79248  1  0
 80249  1  0
 81250  1  0
 82251  1  0
 84252  1  0
 85253  1  0
 88254  1  6
 89255  1  0
 89256  1  0
 90257  1  0
 90258  1  0
 91259  1  0
 91260  1  0
 92261  1  0
 92262  1  0
 98263  1  0
 99264  1  6
100265  1  0
100266  1  0
102267  1  0
103268  1  0
104269  1  0
105270  1  0
106271  1  0
109272  1  0
110273  1  6
111274  1  0
111275  1  0
113276  1  0
114277  1  0
116278  1  0
117279  1  0
118280  1  0
119281  1  0
121282  1  0
124283  1  0
125284  1  6
126285  1  0
126286  1  0
127287  1  0
127288  1  0
128289  1  0
128290  1  0
129291  1  0
131292  1  0
132293  1  0
132294  1  0
135295  1  0
136296  1  1
137297  1  0
137298  1  0
138299  1  0
138300  1  0
139301  1  0
139302  1  0
140303  1  0
142304  1  0
143305  1  0
143306  1  0
146307  1  0
147308  1  6
148309  1  0
148310  1  0
149311  1  0
149312  1  0
150313  1  0
150314  1  0
151315  1  0
153316  1  0
154317  1  0
154318  1  0
157319  1  0
158320  1  6
159321  1  0
159322  1  0
160323  1  0
160324  1  0
161325  1  0
161326  1  0
162327  1  0
164328  1  0
165329  1  0
165330  1  0
168331  1  0
169332  1  1
172333  1  0
173334  1  6
174335  1  0
174336  1  0
175337  1  0
176338  1  0
176339  1  0
177340  1  0
177341  1  0
178342  1  0
178343  1  0
179344  1  0
179345  1  0
180346  1  0
180347  1  0
181348  1  0
181349  1  0
182350  1  0
M  END
$$$$
