
     RDKit          3D

338348  0  0  0  0  0  0  0  0999 V2000
    6.4165   -6.1702   -0.2122 C   0  0  0  0  0  0  0  0  0  0  0  0
    6.4536   -4.7589   -0.7989 C   0  0  2  0  0  0  0  0  0  0  0  0
    7.8055   -4.2003   -0.7402 N   0  0  0  0  0  0  0  0  0  0  0  0
    8.7735   -4.6266   -1.6307 C   0  0  0  0  0  0  0  0  0  0  0  0
    8.5272   -5.3646   -2.5792 O   0  0  0  0  0  0  0  0  0  0  0  0
   10.2295   -4.2730   -1.2357 C   0  0  2  0  0  0  0  0  0  0  0  0
   10.6999   -5.2531   -0.1410 C   0  0  0  0  0  0  0  0  0  0  0  0
   10.9363   -6.6638   -0.7011 C   0  0  0  0  0  0  0  0  0  0  0  0
   11.3156   -7.6797    0.3737 C   0  0  0  0  0  0  0  0  0  0  0  0
   12.5977   -7.3472    0.9742 N   0  0  0  0  0  0  0  0  0  0  0  0
   13.1771   -8.1238    1.9219 C   0  0  0  0  0  0  0  0  0  0  0  0
   12.6548   -9.0634    2.6130 N   0  0  0  0  0  0  0  0  0  0  0  0
   14.4704   -7.8033    2.1022 N   0  0  0  0  0  0  0  0  0  0  0  0
   10.4006   -2.8797   -0.7728 N   0  0  0  0  0  0  0  0  0  0  0  0
   10.2292   -1.8831   -1.7293 C   0  0  0  0  0  0  0  0  0  0  0  0
    9.5615   -2.0524   -2.7437 O   0  0  0  0  0  0  0  0  0  0  0  0
   11.0433   -0.5935   -1.5057 C   0  0  2  0  0  0  0  0  0  0  0  0
   12.4238   -0.7164   -2.1964 C   0  0  0  0  0  0  0  0  0  0  0  0
   13.3626   -1.7378   -1.5942 C   0  0  0  0  0  0  0  0  0  0  0  0
   14.1192   -1.4355   -0.4582 C   0  0  0  0  0  0  0  0  0  0  0  0
   14.9517   -2.3943    0.1187 C   0  0  0  0  0  0  0  0  0  0  0  0
   15.0568   -3.6793   -0.4364 C   0  0  0  0  0  0  0  0  0  0  0  0
   15.8910   -4.6556    0.1285 C   0  0  0  0  0  0  0  0  0  0  0  0
   15.9957   -5.9242   -0.4467 C   0  0  0  0  0  0  0  0  0  0  0  0
   15.2656   -6.2302   -1.5907 C   0  0  0  0  0  0  0  0  0  0  0  0
   14.4311   -5.2682   -2.1656 C   0  0  0  0  0  0  0  0  0  0  0  0
   14.3165   -3.9913   -1.5985 C   0  0  0  0  0  0  0  0  0  0  0  0
   13.4842   -3.0117   -2.1668 C   0  0  0  0  0  0  0  0  0  0  0  0
   11.0747   -0.2307   -0.0790 N   0  0  0  0  0  0  0  0  0  0  0  0
   11.5703    1.0101    0.2932 C   0  0  0  0  0  0  0  0  0  0  0  0
   12.3052    1.6745   -0.4321 O   0  0  0  0  0  0  0  0  0  0  0  0
   11.1594    1.4768    1.7161 C   0  0  1  0  0  0  0  0  0  0  0  0
   11.9038    0.7055    2.8059 C   0  0  0  0  0  0  0  0  0  0  0  0
   13.3829    1.0796    2.9249 C   0  0  0  0  0  0  0  0  0  0  0  0
   13.6872    2.5283    2.5450 C   0  0  0  0  0  0  0  0  0  0  0  0
   12.4594    3.4218    2.6381 C   0  0  0  0  0  0  0  0  0  0  0  0
   11.3809    2.9269    1.7792 N   0  0  0  0  0  0  0  0  0  0  0  0
   10.5358    3.7001    0.9916 C   0  0  0  0  0  0  0  0  0  0  0  0
    9.5211    3.1938    0.4934 O   0  0  0  0  0  0  0  0  0  0  0  0
   10.9484    5.1514    0.6412 C   0  0  1  0  0  0  0  0  0  0  0  0
   12.1581    5.1071   -0.3218 C   0  0  2  0  0  0  0  0  0  0  0  0
   12.6672    6.5034   -0.6664 C   0  0  0  0  0  0  0  0  0  0  0  0
   11.8134    4.4563   -1.5530 O   0  0  0  0  0  0  0  0  0  0  0  0
    9.7892    5.7811    0.0074 N   0  0  0  0  0  0  0  0  0  0  0  0
    8.7255    6.1859    0.7832 C   0  0  0  0  0  0  0  0  0  0  0  0
    8.8178    6.3575    2.0009 O   0  0  0  0  0  0  0  0  0  0  0  0
    7.4124    6.4298    0.0190 C   0  0  2  0  0  0  0  0  0  0  0  0
    7.3671    7.8479   -0.5713 C   0  0  0  0  0  0  0  0  0  0  0  0
    8.3441    8.1250   -1.6868 C   0  0  0  0  0  0  0  0  0  0  0  0
    9.4220    8.9992   -1.4810 C   0  0  0  0  0  0  0  0  0  0  0  0
   10.3114    9.2840   -2.5193 C   0  0  0  0  0  0  0  0  0  0  0  0
   10.1318    8.6866   -3.7624 C   0  0  0  0  0  0  0  0  0  0  0  0
   10.9848    8.9681   -4.7570 F   0  0  0  0  0  0  0  0  0  0  0  0
    9.0692    7.8154   -3.9743 C   0  0  0  0  0  0  0  0  0  0  0  0
    8.8949    7.2461   -5.1747 F   0  0  0  0  0  0  0  0  0  0  0  0
    8.1754    7.5295   -2.9443 C   0  0  0  0  0  0  0  0  0  0  0  0
    6.3242    6.2595    0.9876 N   0  0  0  0  0  0  0  0  0  0  0  0
    5.1099    5.7060    0.6486 C   0  0  0  0  0  0  0  0  0  0  0  0
    4.8643    5.2915   -0.4848 O   0  0  0  0  0  0  0  0  0  0  0  0
    4.0654    5.6859    1.7822 C   0  0  1  0  0  0  0  0  0  0  0  0
    3.6124    7.1258    2.1343 C   0  0  0  0  0  0  0  0  0  0  0  0
    3.0420    7.9157    0.9698 C   0  0  0  0  0  0  0  0  0  0  0  0
    3.8022    8.9168    0.3523 C   0  0  0  0  0  0  0  0  0  0  0  0
    3.3083    9.5950   -0.7655 C   0  0  0  0  0  0  0  0  0  0  0  0
    2.0537    9.2734   -1.2817 C   0  0  0  0  0  0  0  0  0  0  0  0
    1.2831    8.2932   -0.6652 C   0  0  0  0  0  0  0  0  0  0  0  0
    1.7647    7.6337    0.4662 C   0  0  0  0  0  0  0  0  0  0  0  0
    2.9546    4.8095    1.4089 N   0  0  0  0  0  0  0  0  0  0  0  0
    1.9863    4.4674    2.3189 C   0  0  0  0  0  0  0  0  0  0  0  0
    2.0623    4.6989    3.5207 O   0  0  0  0  0  0  0  0  0  0  0  0
    0.7561    3.8716    1.7551 C   0  0  0  0  0  0  0  0  0  0  0  0
   -0.4730    4.4324    2.1251 C   0  0  0  0  0  0  0  0  0  0  0  0
   -1.6663    3.9148    1.6125 C   0  0  0  0  0  0  0  0  0  0  0  0
   -1.6066    2.8216    0.7397 C   0  0  0  0  0  0  0  0  0  0  0  0
   -0.3737    2.2315    0.4038 C   0  0  0  0  0  0  0  0  0  0  0  0
    0.8160    2.7669    0.8990 C   0  0  0  0  0  0  0  0  0  0  0  0
   -0.4235    1.0250   -0.4678 C   0  0  0  0  0  0  0  0  0  0  0  0
   -1.3596    0.8896   -1.2487 O   0  0  0  0  0  0  0  0  0  0  0  0
    0.5651    0.0901   -0.3035 N   0  0  0  0  0  0  0  0  0  0  0  0
    0.5824   -1.1489   -1.0732 C   0  0  0  0  0  0  0  0  0  0  0  0
    1.3338   -2.2859   -0.3558 C   0  0  2  0  0  0  0  0  0  0  0  0
    2.7889   -2.1416   -0.4083 N   0  0  0  0  0  0  0  0  0  0  0  0
    3.4888   -1.2255    0.3253 C   0  0  0  0  0  0  0  0  0  0  0  0
    2.9473   -0.2768    0.8855 O   0  0  0  0  0  0  0  0  0  0  0  0
    5.0313   -1.3838    0.3360 C   0  0  1  0  0  0  0  0  0  0  0  0
    5.5511   -1.3565    1.7725 C   0  0  0  0  0  0  0  0  0  0  0  0
    5.6094   -2.4921   -0.4302 N   0  0  0  0  0  0  0  0  0  0  0  0
    5.4891   -3.8150   -0.0558 C   0  0  0  0  0  0  0  0  0  0  0  0
    4.6058   -4.2020    0.7070 O   0  0  0  0  0  0  0  0  0  0  0  0
    0.9660   -3.6162   -1.0316 C   0  0  0  0  0  0  0  0  0  0  0  0
    1.6362   -4.0905   -1.9502 O   0  0  0  0  0  0  0  0  0  0  0  0
   -0.1726   -4.2245   -0.5552 N   0  0  0  0  0  0  0  0  0  0  0  0
   -0.7544   -5.4109   -1.1943 C   0  0  1  0  0  0  0  0  0  0  0  0
    0.1195   -6.6730   -1.0197 C   0  0  0  0  0  0  0  0  0  0  0  0
   -0.1804   -7.7363   -2.0539 C   0  0  0  0  0  0  0  0  0  0  0  0
   -0.8077   -8.9332   -1.6876 C   0  0  0  0  0  0  0  0  0  0  0  0
   -1.1441   -9.8810   -2.6555 C   0  0  0  0  0  0  0  0  0  0  0  0
   -0.8526   -9.6431   -3.9981 C   0  0  0  0  0  0  0  0  0  0  0  0
   -0.2060   -8.4642   -4.3699 C   0  0  0  0  0  0  0  0  0  0  0  0
    0.1306   -7.5167   -3.4022 C   0  0  0  0  0  0  0  0  0  0  0  0
   -2.1383   -5.6395   -0.5422 C   0  0  0  0  0  0  0  0  0  0  0  0
   -2.4651   -5.0624    0.4952 O   0  0  0  0  0  0  0  0  0  0  0  0
   -2.9490   -6.5478   -1.1933 N   0  0  0  0  0  0  0  0  0  0  0  0
   -4.3326   -6.8210   -0.7745 C   0  0  1  0  0  0  0  0  0  0  0  0
   -4.4261   -7.1722    0.7242 C   0  0  0  0  0  0  0  0  0  0  0  0
   -5.4493   -8.2362    1.0563 C   0  0  0  0  0  0  0  0  0  0  0  0
   -5.2841   -9.5507    0.6084 C   0  0  0  0  0  0  0  0  0  0  0  0
   -6.2166  -10.5375    0.9457 C   0  0  0  0  0  0  0  0  0  0  0  0
   -7.3263  -10.2306    1.7480 C   0  0  0  0  0  0  0  0  0  0  0  0
   -8.2646  -11.2130    2.1103 C   0  0  0  0  0  0  0  0  0  0  0  0
   -9.3573  -10.8875    2.9173 C   0  0  0  0  0  0  0  0  0  0  0  0
   -9.5285   -9.5801    3.3618 C   0  0  0  0  0  0  0  0  0  0  0  0
   -8.6069   -8.5956    3.0081 C   0  0  0  0  0  0  0  0  0  0  0  0
   -7.4978   -8.9055    2.2083 C   0  0  0  0  0  0  0  0  0  0  0  0
   -6.5569   -7.9275    1.8572 C   0  0  0  0  0  0  0  0  0  0  0  0
   -5.2229   -5.6313   -1.2079 C   0  0  0  0  0  0  0  0  0  0  0  0
   -4.7902   -4.6965   -1.8893 O   0  0  0  0  0  0  0  0  0  0  0  0
   -6.5427   -5.7093   -0.8495 N   0  0  0  0  0  0  0  0  0  0  0  0
   -7.4893   -4.6426   -1.1445 C   0  0  1  0  0  0  0  0  0  0  0  0
   -8.1661   -4.8242   -2.5089 C   0  0  0  0  0  0  0  0  0  0  0  0
   -8.8679   -6.1736   -2.7460 C   0  0  0  0  0  0  0  0  0  0  0  0
  -10.2489   -6.2856   -2.0981 C   0  0  0  0  0  0  0  0  0  0  0  0
  -10.8553   -7.5727   -2.4114 N   0  0  0  0  0  0  0  0  0  0  0  0
  -10.4579   -8.7019   -1.7773 C   0  0  0  0  0  0  0  0  0  0  0  0
   -9.4826   -8.7746   -0.9549 N   0  0  0  0  0  0  0  0  0  0  0  0
  -11.2137   -9.7547   -2.1410 N   0  0  0  0  0  0  0  0  0  0  0  0
   -8.4965   -4.5089    0.0122 C   0  0  0  0  0  0  0  0  0  0  0  0
   -8.6439   -5.3828    0.8621 O   0  0  0  0  0  0  0  0  0  0  0  0
   -9.2322   -3.3394   -0.0138 N   0  0  0  0  0  0  0  0  0  0  0  0
  -10.4523   -3.1737    0.7829 C   0  0  1  0  0  0  0  0  0  0  0  0
  -10.1505   -3.1066    2.2927 C   0  0  0  0  0  0  0  0  0  0  0  0
  -11.3947   -3.0794    3.2007 C   0  0  0  0  0  0  0  0  0  0  0  0
  -12.4610   -4.1372    2.8826 C   0  0  0  0  0  0  0  0  0  0  0  0
  -11.8396   -5.4061    2.5676 N   0  0  0  0  0  0  0  0  0  0  0  0
  -12.5258   -6.4216    2.0106 C   0  0  0  0  0  0  0  0  0  0  0  0
  -13.7451   -6.3821    1.6272 N   0  0  0  0  0  0  0  0  0  0  0  0
  -11.7535   -7.5245    1.9171 N   0  0  0  0  0  0  0  0  0  0  0  0
  -11.1155   -1.8634    0.3370 C   0  0  0  0  0  0  0  0  0  0  0  0
  -12.3256   -1.7257    0.1969 O   0  0  0  0  0  0  0  0  0  0  0  0
  -10.2390   -0.8106    0.2081 N   0  0  0  0  0  0  0  0  0  0  0  0
  -10.6712    0.5556   -0.0713 C   0  0  1  0  0  0  0  0  0  0  0  0
  -11.2990    1.1600    1.1962 C   0  0  0  0  0  0  0  0  0  0  0  0
  -12.1959    2.3811    0.9939 C   0  0  0  0  0  0  0  0  0  0  0  0
  -13.3909    2.1410    0.0581 C   0  0  0  0  0  0  0  0  0  0  0  0
  -13.9044    3.4085   -0.4371 N   0  0  0  0  0  0  0  0  0  0  0  0
  -13.2003    4.2206   -1.2513 C   0  0  0  0  0  0  0  0  0  0  0  0
  -12.3018    3.8782   -2.1039 N   0  0  0  0  0  0  0  0  0  0  0  0
  -13.5240    5.5144   -1.0659 N   0  0  0  0  0  0  0  0  0  0  0  0
   -9.4092    1.2923   -0.5669 C   0  0  0  0  0  0  0  0  0  0  0  0
   -8.2966    0.7577   -0.5294 O   0  0  0  0  0  0  0  0  0  0  0  0
   -9.5934    2.5601   -1.0683 N   0  0  0  0  0  0  0  0  0  0  0  0
   -8.4418    3.4240   -1.3008 C   0  0  1  0  0  0  0  0  0  0  0  0
   -8.8208    4.6296   -2.1808 C   0  0  0  0  0  0  0  0  0  0  0  0
   -9.5889    5.7221   -1.4287 C   0  0  0  0  0  0  0  0  0  0  0  0
  -10.2525    6.7248   -2.3782 C   0  0  0  0  0  0  0  0  0  0  0  0
  -11.0414    7.6557   -1.5878 N   0  0  0  0  0  0  0  0  0  0  0  0
  -11.9840    8.4892   -2.0702 C   0  0  0  0  0  0  0  0  0  0  0  0
  -12.5242    8.5018   -3.2279 N   0  0  0  0  0  0  0  0  0  0  0  0
  -12.4252    9.3369   -1.1193 N   0  0  0  0  0  0  0  0  0  0  0  0
   -7.8710    3.8701    0.0704 C   0  0  0  0  0  0  0  0  0  0  0  0
   -8.4456    3.6696    1.1372 O   0  0  0  0  0  0  0  0  0  0  0  0
   -6.6801    4.5554   -0.0016 N   0  0  0  0  0  0  0  0  0  0  0  0
   -6.1947    5.3050    1.1583 C   0  0  2  0  0  0  0  0  0  0  0  0
   -5.4696    6.5450    0.5936 C   0  0  0  0  0  0  0  0  0  0  0  0
   -5.6295    6.8801   -0.5866 O   0  0  0  0  0  0  0  0  0  0  0  0
   -4.7769    7.3239    1.4915 N   0  0  0  0  0  0  0  0  0  0  0  0
   -4.2027    8.5943    1.0537 C   0  0  1  0  0  0  0  0  0  0  0  0
   -4.2858    9.6295    2.1841 C   0  0  0  0  0  0  0  0  0  0  0  0
   -5.7119    9.9240    2.6763 C   0  0  0  0  0  0  0  0  0  0  0  0
   -6.7240   10.3344    1.6056 C   0  0  0  0  0  0  0  0  0  0  0  0
   -6.3105   11.5685    0.8054 C   0  0  0  0  0  0  0  0  0  0  0  0
   -7.3597   11.9622   -0.1302 N   0  0  0  0  0  0  0  0  0  0  0  0
   -2.7563    8.4248    0.5725 C   0  0  0  0  0  0  0  0  0  0  0  0
   -2.0758    7.4082    0.5769 O   0  0  0  0  0  0  0  0  0  0  0  0
   -2.2365    9.5820    0.0882 O   0  0  0  0  0  0  0  0  0  0  0  0
   -5.4148    4.4202    2.1300 C   0  0  0  0  0  0  0  0  0  0  0  0
   -4.1325    3.9728    1.6123 N   0  0  0  0  0  0  0  0  0  0  0  0
   -2.9534    4.5242    2.0665 C   0  0  0  0  0  0  0  0  0  0  0  0
   -2.9613    5.4586    2.8711 O   0  0  0  0  0  0  0  0  0  0  0  0
    7.0759   -6.8428   -0.7762 H   0  0  0  0  0  0  0  0  0  0  0  0
    5.4031   -6.5836   -0.2706 H   0  0  0  0  0  0  0  0  0  0  0  0
    6.7374   -6.1756    0.8359 H   0  0  0  0  0  0  0  0  0  0  0  0
    6.1356   -4.7974   -1.8464 H   0  0  0  0  0  0  0  0  0  0  0  0
    8.1151   -3.7519    0.1144 H   0  0  0  0  0  0  0  0  0  0  0  0
   10.8434   -4.3776   -2.1369 H   0  0  0  0  0  0  0  0  0  0  0  0
   11.6318   -4.8824    0.3005 H   0  0  0  0  0  0  0  0  0  0  0  0
    9.9677   -5.2953    0.6760 H   0  0  0  0  0  0  0  0  0  0  0  0
   10.0312   -7.0252   -1.1971 H   0  0  0  0  0  0  0  0  0  0  0  0
   11.7193   -6.6239   -1.4660 H   0  0  0  0  0  0  0  0  0  0  0  0
   11.3771   -8.6727   -0.0872 H   0  0  0  0  0  0  0  0  0  0  0  0
   10.5340   -7.7202    1.1387 H   0  0  0  0  0  0  0  0  0  0  0  0
   13.2932   -7.0535    0.2970 H   0  0  0  0  0  0  0  0  0  0  0  0
   11.6764   -9.1774    2.3604 H   0  0  0  0  0  0  0  0  0  0  0  0
   14.6123   -6.8072    2.2189 H   0  0  0  0  0  0  0  0  0  0  0  0
   14.8315   -8.3081    2.9068 H   0  0  0  0  0  0  0  0  0  0  0  0
   11.2459   -2.7334   -0.2255 H   0  0  0  0  0  0  0  0  0  0  0  0
   10.4851    0.2114   -2.0044 H   0  0  0  0  0  0  0  0  0  0  0  0
   12.2647   -0.9717   -3.2549 H   0  0  0  0  0  0  0  0  0  0  0  0
   12.9409    0.2497   -2.2242 H   0  0  0  0  0  0  0  0  0  0  0  0
   14.0814   -0.4380   -0.0240 H   0  0  0  0  0  0  0  0  0  0  0  0
   15.5340   -2.1268    0.9992 H   0  0  0  0  0  0  0  0  0  0  0  0
   16.4795   -4.4317    1.0170 H   0  0  0  0  0  0  0  0  0  0  0  0
   16.6526   -6.6682   -0.0073 H   0  0  0  0  0  0  0  0  0  0  0  0
   15.3549   -7.2154   -2.0451 H   0  0  0  0  0  0  0  0  0  0  0  0
   13.8780   -5.5250   -3.0693 H   0  0  0  0  0  0  0  0  0  0  0  0
   12.9245   -3.2477   -3.0722 H   0  0  0  0  0  0  0  0  0  0  0  0
   10.2795   -0.5591    0.4598 H   0  0  0  0  0  0  0  0  0  0  0  0
   10.0804    1.2843    1.8216 H   0  0  0  0  0  0  0  0  0  0  0  0
   11.8227   -0.3805    2.6524 H   0  0  0  0  0  0  0  0  0  0  0  0
   11.4161    0.9123    3.7689 H   0  0  0  0  0  0  0  0  0  0  0  0
   13.9854    0.4171    2.2965 H   0  0  0  0  0  0  0  0  0  0  0  0
   13.7074    0.8932    3.9546 H   0  0  0  0  0  0  0  0  0  0  0  0
   14.4913    2.9121    3.1785 H   0  0  0  0  0  0  0  0  0  0  0  0
   14.0694    2.5503    1.5179 H   0  0  0  0  0  0  0  0  0  0  0  0
   12.0677    3.4360    3.6641 H   0  0  0  0  0  0  0  0  0  0  0  0
   12.7272    4.4508    2.3915 H   0  0  0  0  0  0  0  0  0  0  0  0
   11.1844    5.7003    1.5578 H   0  0  0  0  0  0  0  0  0  0  0  0
   12.9931    4.5448    0.1162 H   0  0  0  0  0  0  0  0  0  0  0  0
   13.6272    6.4340   -1.1960 H   0  0  0  0  0  0  0  0  0  0  0  0
   11.9817    7.0208   -1.3485 H   0  0  0  0  0  0  0  0  0  0  0  0
   12.8209    7.1101    0.2341 H   0  0  0  0  0  0  0  0  0  0  0  0
   11.9168    3.4922   -1.4039 H   0  0  0  0  0  0  0  0  0  0  0  0
    9.5818    5.4111   -0.9165 H   0  0  0  0  0  0  0  0  0  0  0  0
    7.3062    5.6702   -0.7616 H   0  0  0  0  0  0  0  0  0  0  0  0
    7.5149    8.5813    0.2351 H   0  0  0  0  0  0  0  0  0  0  0  0
    6.3576    8.0521   -0.9596 H   0  0  0  0  0  0  0  0  0  0  0  0
    9.5749    9.4748   -0.5147 H   0  0  0  0  0  0  0  0  0  0  0  0
   11.1456    9.9613   -2.3689 H   0  0  0  0  0  0  0  0  0  0  0  0
    7.3449    6.8570   -3.1457 H   0  0  0  0  0  0  0  0  0  0  0  0
    6.5624    6.4063    1.9635 H   0  0  0  0  0  0  0  0  0  0  0  0
    4.5315    5.2354    2.6682 H   0  0  0  0  0  0  0  0  0  0  0  0
    4.4669    7.6775    2.5492 H   0  0  0  0  0  0  0  0  0  0  0  0
    2.8643    7.1107    2.9358 H   0  0  0  0  0  0  0  0  0  0  0  0
    4.7886    9.1741    0.7266 H   0  0  0  0  0  0  0  0  0  0  0  0
    3.9092   10.3615   -1.2453 H   0  0  0  0  0  0  0  0  0  0  0  0
    1.6812    9.7872   -2.1654 H   0  0  0  0  0  0  0  0  0  0  0  0
    0.3136    8.0202   -1.0736 H   0  0  0  0  0  0  0  0  0  0  0  0
    1.1326    6.8895    0.9410 H   0  0  0  0  0  0  0  0  0  0  0  0
    2.7814    4.7255    0.4087 H   0  0  0  0  0  0  0  0  0  0  0  0
   -0.4965    5.2797    2.8091 H   0  0  0  0  0  0  0  0  0  0  0  0
   -2.5036    2.3776    0.3208 H   0  0  0  0  0  0  0  0  0  0  0  0
    1.7781    2.3326    0.6373 H   0  0  0  0  0  0  0  0  0  0  0  0
    1.3476    0.2441    0.3352 H   0  0  0  0  0  0  0  0  0  0  0  0
    1.0510   -0.9208   -2.0366 H   0  0  0  0  0  0  0  0  0  0  0  0
   -0.4524   -1.4418   -1.2738 H   0  0  0  0  0  0  0  0  0  0  0  0
    1.0460   -2.3358    0.7018 H   0  0  0  0  0  0  0  0  0  0  0  0
    3.2982   -2.9739   -0.7020 H   0  0  0  0  0  0  0  0  0  0  0  0
    5.4064   -0.4852   -0.1738 H   0  0  0  0  0  0  0  0  0  0  0  0
    5.2972   -0.4118    2.2628 H   0  0  0  0  0  0  0  0  0  0  0  0
    5.1190   -2.1730    2.3658 H   0  0  0  0  0  0  0  0  0  0  0  0
    6.6428   -1.4714    1.7950 H   0  0  0  0  0  0  0  0  0  0  0  0
    6.3936   -2.2762   -1.0435 H   0  0  0  0  0  0  0  0  0  0  0  0
   -0.7657   -3.7482    0.1168 H   0  0  0  0  0  0  0  0  0  0  0  0
   -0.9060   -5.1539   -2.2476 H   0  0  0  0  0  0  0  0  0  0  0  0
   -0.0221   -7.0819   -0.0124 H   0  0  0  0  0  0  0  0  0  0  0  0
    1.1862   -6.4339   -1.0941 H   0  0  0  0  0  0  0  0  0  0  0  0
   -1.0527   -9.1325   -0.6471 H   0  0  0  0  0  0  0  0  0  0  0  0
   -1.6401  -10.8023   -2.3650 H   0  0  0  0  0  0  0  0  0  0  0  0
   -1.1162  -10.3773   -4.7516 H   0  0  0  0  0  0  0  0  0  0  0  0
    0.0323   -8.2819   -5.4159 H   0  0  0  0  0  0  0  0  0  0  0  0
    0.6363   -6.6003   -3.7119 H   0  0  0  0  0  0  0  0  0  0  0  0
   -2.7409   -6.7166   -2.1719 H   0  0  0  0  0  0  0  0  0  0  0  0
   -4.6434   -7.6707   -1.3956 H   0  0  0  0  0  0  0  0  0  0  0  0
   -4.6339   -6.2688    1.3094 H   0  0  0  0  0  0  0  0  0  0  0  0
   -3.4631   -7.5501    1.0915 H   0  0  0  0  0  0  0  0  0  0  0  0
   -4.4230   -9.8254    0.0008 H   0  0  0  0  0  0  0  0  0  0  0  0
   -6.0633  -11.5515    0.5830 H   0  0  0  0  0  0  0  0  0  0  0  0
   -8.1447  -12.2383    1.7765 H   0  0  0  0  0  0  0  0  0  0  0  0
  -10.0768  -11.6547    3.1959 H   0  0  0  0  0  0  0  0  0  0  0  0
  -10.3839   -9.3208    3.9817 H   0  0  0  0  0  0  0  0  0  0  0  0
   -8.7626   -7.5767    3.3560 H   0  0  0  0  0  0  0  0  0  0  0  0
   -6.6920   -6.9075    2.2174 H   0  0  0  0  0  0  0  0  0  0  0  0
   -6.9094   -6.5135   -0.3470 H   0  0  0  0  0  0  0  0  0  0  0  0
   -6.9290   -3.6980   -1.1688 H   0  0  0  0  0  0  0  0  0  0  0  0
   -8.8781   -4.0138   -2.7024 H   0  0  0  0  0  0  0  0  0  0  0  0
   -7.3895   -4.7338   -3.2796 H   0  0  0  0  0  0  0  0  0  0  0  0
   -8.2108   -6.9965   -2.4359 H   0  0  0  0  0  0  0  0  0  0  0  0
   -8.9923   -6.2995   -3.8346 H   0  0  0  0  0  0  0  0  0  0  0  0
  -10.8981   -5.5002   -2.4996 H   0  0  0  0  0  0  0  0  0  0  0  0
  -10.2270   -6.1588   -1.0141 H   0  0  0  0  0  0  0  0  0  0  0  0
  -11.8653   -7.5128   -2.4882 H   0  0  0  0  0  0  0  0  0  0  0  0
   -9.3836   -9.7243   -0.5913 H   0  0  0  0  0  0  0  0  0  0  0  0
  -10.7937  -10.6512   -1.9261 H   0  0  0  0  0  0  0  0  0  0  0  0
  -11.4856   -9.7086   -3.1126 H   0  0  0  0  0  0  0  0  0  0  0  0
   -9.1335   -2.7391   -0.8273 H   0  0  0  0  0  0  0  0  0  0  0  0
  -11.1073   -4.0051    0.5119 H   0  0  0  0  0  0  0  0  0  0  0  0
   -9.5449   -2.2212    2.5204 H   0  0  0  0  0  0  0  0  0  0  0  0
   -9.5383   -3.9624    2.5988 H   0  0  0  0  0  0  0  0  0  0  0  0
  -11.0533   -3.2183    4.2354 H   0  0  0  0  0  0  0  0  0  0  0  0
  -11.8606   -2.0829    3.1661 H   0  0  0  0  0  0  0  0  0  0  0  0
  -13.0676   -3.7892    2.0349 H   0  0  0  0  0  0  0  0  0  0  0  0
  -13.1343   -4.2455    3.7415 H   0  0  0  0  0  0  0  0  0  0  0  0
  -11.1261   -5.7170    3.2136 H   0  0  0  0  0  0  0  0  0  0  0  0
  -13.9983   -7.2921    1.2516 H   0  0  0  0  0  0  0  0  0  0  0  0
  -10.8502   -7.3464    1.4745 H   0  0  0  0  0  0  0  0  0  0  0  0
  -12.1773   -8.3441    1.5210 H   0  0  0  0  0  0  0  0  0  0  0  0
   -9.2516   -0.9444    0.4208 H   0  0  0  0  0  0  0  0  0  0  0  0
  -11.3741    0.4933   -0.9051 H   0  0  0  0  0  0  0  0  0  0  0  0
  -10.5038    1.4234    1.9041 H   0  0  0  0  0  0  0  0  0  0  0  0
  -11.9036    0.4045    1.7095 H   0  0  0  0  0  0  0  0  0  0  0  0
  -12.5910    2.6871    1.9740 H   0  0  0  0  0  0  0  0  0  0  0  0
  -11.5850    3.2294    0.6693 H   0  0  0  0  0  0  0  0  0  0  0  0
  -14.1853    1.6266    0.6075 H   0  0  0  0  0  0  0  0  0  0  0  0
  -13.1425    1.5058   -0.7940 H   0  0  0  0  0  0  0  0  0  0  0  0
  -14.3748    3.9312    0.3011 H   0  0  0  0  0  0  0  0  0  0  0  0
  -12.2872    2.8564   -2.1671 H   0  0  0  0  0  0  0  0  0  0  0  0
  -14.4963    5.6845   -1.2849 H   0  0  0  0  0  0  0  0  0  0  0  0
  -12.9778    6.1081   -1.6955 H   0  0  0  0  0  0  0  0  0  0  0  0
  -10.4916    3.0237   -0.9850 H   0  0  0  0  0  0  0  0  0  0  0  0
   -7.6725    2.8275   -1.8107 H   0  0  0  0  0  0  0  0  0  0  0  0
   -9.4123    4.2729   -3.0329 H   0  0  0  0  0  0  0  0  0  0  0  0
   -7.9099    5.0732   -2.6061 H   0  0  0  0  0  0  0  0  0  0  0  0
   -8.9045    6.2632   -0.7648 H   0  0  0  0  0  0  0  0  0  0  0  0
  -10.3498    5.2775   -0.7773 H   0  0  0  0  0  0  0  0  0  0  0  0
  -10.8927    6.1867   -3.0846 H   0  0  0  0  0  0  0  0  0  0  0  0
   -9.4961    7.2721   -2.9478 H   0  0  0  0  0  0  0  0  0  0  0  0
  -10.5251    8.0616   -0.8107 H   0  0  0  0  0  0  0  0  0  0  0  0
  -12.0931    7.7866   -3.8186 H   0  0  0  0  0  0  0  0  0  0  0  0
  -13.2304    9.8388   -1.4802 H   0  0  0  0  0  0  0  0  0  0  0  0
  -12.6671    8.8512   -0.2609 H   0  0  0  0  0  0  0  0  0  0  0  0
   -6.3527    4.8918   -0.9014 H   0  0  0  0  0  0  0  0  0  0  0  0
   -7.0750    5.6986    1.6857 H   0  0  0  0  0  0  0  0  0  0  0  0
   -4.2499    6.8216    2.2074 H   0  0  0  0  0  0  0  0  0  0  0  0
   -4.7621    8.9533    0.1807 H   0  0  0  0  0  0  0  0  0  0  0  0
   -3.8216   10.5709    1.8640 H   0  0  0  0  0  0  0  0  0  0  0  0
   -3.6935    9.2786    3.0375 H   0  0  0  0  0  0  0  0  0  0  0  0
   -5.6522   10.7189    3.4306 H   0  0  0  0  0  0  0  0  0  0  0  0
   -6.1025    9.0430    3.1987 H   0  0  0  0  0  0  0  0  0  0  0  0
   -7.6805   10.5343    2.1090 H   0  0  0  0  0  0  0  0  0  0  0  0
   -6.9170    9.4931    0.9255 H   0  0  0  0  0  0  0  0  0  0  0  0
   -6.1038   12.4048    1.4785 H   0  0  0  0  0  0  0  0  0  0  0  0
   -5.3969   11.3737    0.2306 H   0  0  0  0  0  0  0  0  0  0  0  0
   -7.5243   11.2127   -0.8035 H   0  0  0  0  0  0  0  0  0  0  0  0
   -8.2403   12.0838    0.3699 H   0  0  0  0  0  0  0  0  0  0  0  0
   -1.3110    9.3567   -0.1378 H   0  0  0  0  0  0  0  0  0  0  0  0
   -5.9870    3.5138    2.3525 H   0  0  0  0  0  0  0  0  0  0  0  0
   -5.2714    4.9484    3.0810 H   0  0  0  0  0  0  0  0  0  0  0  0
   -4.1571    3.2141    0.9463 H   0  0  0  0  0  0  0  0  0  0  0  0
  1  2  1  0
  2  3  1  0
  3  4  1  0
  4  5  2  0
  4  6  1  0
  6  7  1  0
  7  8  1  0
  8  9  1  0
  9 10  1  0
 10 11  1  0
 11 12  2  3
 11 13  1  0
  6 14  1  0
 14 15  1  0
 15 16  2  0
 15 17  1  0
 17 18  1  0
 18 19  1  0
 19 20  1  0
 20 21  2  0
 21 22  1  0
 22 23  2  0
 23 24  1  0
 24 25  2  0
 25 26  1  0
 26 27  2  0
 27 28  1  0
 17 29  1  0
 29 30  1  0
 30 31  2  0
 30 32  1  0
 32 33  1  0
 33 34  1  0
 34 35  1  0
 35 36  1  0
 36 37  1  0
 37 38  1  0
 38 39  2  0
 38 40  1  0
 40 41  1  0
 41 42  1  0
 41 43  1  0
 40 44  1  0
 44 45  1  0
 45 46  2  0
 45 47  1  0
 47 48  1  0
 48 49  1  0
 49 50  1  0
 50 51  2  0
 51 52  1  0
 52 53  1  0
 52 54  2  0
 54 55  1  0
 54 56  1  0
 47 57  1  0
 57 58  1  0
 58 59  2  0
 58 60  1  0
 60 61  1  0
 61 62  1  0
 62 63  2  0
 63 64  1  0
 64 65  2  0
 65 66  1  0
 66 67  2  0
 60 68  1  0
 68 69  1  0
 69 70  2  0
 69 71  1  0
 71 72  1  0
 72 73  2  0
 73 74  1  0
 74 75  2  0
 75 76  1  0
 75 77  1  0
 77 78  2  0
 77 79  1  0
 79 80  1  0
 80 81  1  0
 81 82  1  0
 82 83  1  0
 83 84  2  0
 83 85  1  0
 85 86  1  0
 85 87  1  0
 87 88  1  0
 88 89  2  0
 81 90  1  0
 90 91  2  0
 90 92  1  0
 92 93  1  0
 93 94  1  0
 94 95  1  0
 95 96  2  0
 96 97  1  0
 97 98  2  0
 98 99  1  0
 99100  2  0
 93101  1  0
101102  2  0
101103  1  0
103104  1  0
104105  1  0
105106  1  0
106107  1  0
107108  2  0
108109  1  0
109110  2  0
110111  1  0
111112  2  0
112113  1  0
113114  2  0
114115  1  0
104116  1  0
116117  2  0
116118  1  0
118119  1  0
119120  1  0
120121  1  0
121122  1  0
122123  1  0
123124  1  0
124125  2  3
124126  1  0
119127  1  0
127128  2  0
127129  1  0
129130  1  0
130131  1  0
131132  1  0
132133  1  0
133134  1  0
134135  1  0
135136  2  3
135137  1  0
130138  1  0
138139  2  0
138140  1  0
140141  1  0
141142  1  0
142143  1  0
143144  1  0
144145  1  0
145146  1  0
146147  2  3
146148  1  0
141149  1  0
149150  2  0
149151  1  0
151152  1  0
152153  1  0
153154  1  0
154155  1  0
155156  1  0
156157  1  0
157158  2  3
157159  1  0
152160  1  0
160161  2  0
160162  1  0
162163  1  0
163164  1  0
164165  2  0
164166  1  0
166167  1  0
167168  1  0
168169  1  0
169170  1  0
170171  1  0
171172  1  0
167173  1  0
173174  2  0
173175  1  0
163176  1  0
176177  1  0
177178  1  0
178179  2  0
 88  2  1  0
100 95  1  0
115106  2  0
 28 19  2  0
 37 32  1  0
 56 49  2  0
 67 62  1  0
 76 71  2  0
114109  1  0
 27 22  1  0
178 73  1  0
  1180  1  0
  1181  1  0
  1182  1  0
  2183  1  6
  3184  1  0
  6185  1  6
  7186  1  0
  7187  1  0
  8188  1  0
  8189  1  0
  9190  1  0
  9191  1  0
 10192  1  0
 12193  1  0
 13194  1  0
 13195  1  0
 14196  1  0
 17197  1  6
 18198  1  0
 18199  1  0
 20200  1  0
 21201  1  0
 23202  1  0
 24203  1  0
 25204  1  0
 26205  1  0
 28206  1  0
 29207  1  0
 32208  1  1
 33209  1  0
 33210  1  0
 34211  1  0
 34212  1  0
 35213  1  0
 35214  1  0
 36215  1  0
 36216  1  0
 40217  1  1
 41218  1  1
 42219  1  0
 42220  1  0
 42221  1  0
 43222  1  0
 44223  1  0
 47224  1  6
 48225  1  0
 48226  1  0
 50227  1  0
 51228  1  0
 56229  1  0
 57230  1  0
 60231  1  1
 61232  1  0
 61233  1  0
 63234  1  0
 64235  1  0
 65236  1  0
 66237  1  0
 67238  1  0
 68239  1  0
 72240  1  0
 74241  1  0
 76242  1  0
 79243  1  0
 80244  1  0
 80245  1  0
 81246  1  1
 82247  1  0
 85248  1  6
 86249  1  0
 86250  1  0
 86251  1  0
 87252  1  0
 92253  1  0
 93254  1  6
 94255  1  0
 94256  1  0
 96257  1  0
 97258  1  0
 98259  1  0
 99260  1  0
100261  1  0
103262  1  0
104263  1  6
105264  1  0
105265  1  0
107266  1  0
108267  1  0
110268  1  0
111269  1  0
112270  1  0
113271  1  0
115272  1  0
118273  1  0
119274  1  6
120275  1  0
120276  1  0
121277  1  0
121278  1  0
122279  1  0
122280  1  0
123281  1  0
125282  1  0
126283  1  0
126284  1  0
129285  1  0
130286  1  1
131287  1  0
131288  1  0
132289  1  0
132290  1  0
133291  1  0
133292  1  0
134293  1  0
136294  1  0
137295  1  0
137296  1  0
140297  1  0
141298  1  6
142299  1  0
142300  1  0
143301  1  0
143302  1  0
144303  1  0
144304  1  0
145305  1  0
147306  1  0
148307  1  0
148308  1  0
151309  1  0
152310  1  6
153311  1  0
153312  1  0
154313  1  0
154314  1  0
155315  1  0
155316  1  0
156317  1  0
158318  1  0
159319  1  0
159320  1  0
162321  1  0
163322  1  1
166323  1  0
167324  1  6
168325  1  0
168326  1  0
169327  1  0
169328  1  0
170329  1  0
170330  1  0
171331  1  0
171332  1  0
172333  1  0
172334  1  0
175335  1  0
176336  1  0
176337  1  0
177338  1  0
M  END
$$$$
