
     RDKit          3D

 46 49  0  0  0  0  0  0  0  0999 V2000
   -1.2843    5.1984   -1.5109 O   0  0  0  0  0  0  0  0  0  0  0  0
   -0.5466    4.2248   -1.4450 C   0  0  0  0  0  0  0  0  0  0  0  0
    0.6481    4.2563   -2.0697 O   0  0  0  0  0  0  0  0  0  0  0  0
   -0.8464    2.9325   -0.6698 C   0  0  0  0  0  0  0  0  0  0  0  0
   -2.2276    2.4374   -1.1579 C   0  0  0  0  0  0  0  0  0  0  0  0
   -2.6557    1.1233   -0.5722 C   0  0  0  0  0  0  0  0  0  0  0  0
   -3.7097    0.7953    0.2556 C   0  0  0  0  0  0  0  0  0  0  0  0
   -3.6386   -0.5996    0.5248 C   0  0  0  0  0  0  0  0  0  0  0  0
   -4.4120   -1.4879    1.2995 C   0  0  0  0  0  0  0  0  0  0  0  0
   -4.0492   -2.8386    1.3557 C   0  0  0  0  0  0  0  0  0  0  0  0
   -2.9404   -3.2947    0.6538 C   0  0  0  0  0  0  0  0  0  0  0  0
   -2.6135   -4.5927    0.7250 F   0  0  0  0  0  0  0  0  0  0  0  0
   -2.1570   -2.4429   -0.1233 C   0  0  0  0  0  0  0  0  0  0  0  0
   -2.5337   -1.0960   -0.1687 C   0  0  0  0  0  0  0  0  0  0  0  0
   -1.9682   -0.0376   -0.8390 N   0  0  0  0  0  0  0  0  0  0  0  0
   -0.8294    3.2478    0.8288 C   0  0  0  0  0  0  0  0  0  0  0  0
    0.8915    2.9581    1.3069 S   0  0  0  0  0  0  0  0  0  0  0  0
    1.0936    1.8896   -0.0538 C   0  0  0  0  0  0  0  0  0  0  0  0
    2.2695    0.9619   -0.0754 C   0  0  0  0  0  0  0  0  0  0  0  0
    1.8961   -0.3512    0.6112 C   0  0  0  0  0  0  0  0  0  0  0  0
    2.9540   -1.4157    0.4132 C   0  0  0  0  0  0  0  0  0  0  0  0
    2.9077   -2.2913   -0.6900 C   0  0  0  0  0  0  0  0  0  0  0  0
    1.6551   -2.1999   -1.8822 Cl  0  0  0  0  0  0  0  0  0  0  0  0
    3.8882   -3.2724   -0.8779 C   0  0  0  0  0  0  0  0  0  0  0  0
    4.9402   -3.3952    0.0245 C   0  0  0  0  0  0  0  0  0  0  0  0
    5.0153   -2.5309    1.1124 C   0  0  0  0  0  0  0  0  0  0  0  0
    4.0366   -1.5484    1.3040 C   0  0  0  0  0  0  0  0  0  0  0  0
    4.2330   -0.5066    2.6715 Cl  0  0  0  0  0  0  0  0  0  0  0  0
    0.1856    1.8811   -0.9744 N   0  0  0  0  0  0  0  0  0  0  0  0
    0.6746    5.1315   -2.5083 H   0  0  0  0  0  0  0  0  0  0  0  0
   -2.9942    3.1912   -0.9334 H   0  0  0  0  0  0  0  0  0  0  0  0
   -2.2170    2.3333   -2.2519 H   0  0  0  0  0  0  0  0  0  0  0  0
   -4.4514    1.4843    0.6390 H   0  0  0  0  0  0  0  0  0  0  0  0
   -5.2780   -1.1302    1.8485 H   0  0  0  0  0  0  0  0  0  0  0  0
   -4.6312   -3.5383    1.9473 H   0  0  0  0  0  0  0  0  0  0  0  0
   -1.2993   -2.8222   -0.6656 H   0  0  0  0  0  0  0  0  0  0  0  0
   -1.1295   -0.0860   -1.4061 H   0  0  0  0  0  0  0  0  0  0  0  0
   -1.4501    2.5614    1.4112 H   0  0  0  0  0  0  0  0  0  0  0  0
   -1.1276    4.2730    1.0669 H   0  0  0  0  0  0  0  0  0  0  0  0
    3.1326    1.4305    0.4101 H   0  0  0  0  0  0  0  0  0  0  0  0
    2.5449    0.7893   -1.1229 H   0  0  0  0  0  0  0  0  0  0  0  0
    1.7171   -0.1834    1.6802 H   0  0  0  0  0  0  0  0  0  0  0  0
    0.9252   -0.7134    0.2526 H   0  0  0  0  0  0  0  0  0  0  0  0
    3.8369   -3.9440   -1.7322 H   0  0  0  0  0  0  0  0  0  0  0  0
    5.7012   -4.1576   -0.1224 H   0  0  0  0  0  0  0  0  0  0  0  0
    5.8437   -2.6241    1.8116 H   0  0  0  0  0  0  0  0  0  0  0  0
  1  2  2  0
  2  3  1  0
  2  4  1  0
  4  5  1  0
  5  6  1  0
  6  7  2  0
  7  8  1  0
  8  9  2  0
  9 10  1  0
 10 11  2  0
 11 12  1  0
 11 13  1  0
 13 14  2  0
 14 15  1  0
  4 16  1  0
 16 17  1  0
 17 18  1  0
 18 19  1  0
 19 20  1  0
 20 21  1  0
 21 22  2  0
 22 23  1  0
 22 24  1  0
 24 25  2  0
 25 26  1  0
 26 27  2  0
 27 28  1  0
 18 29  2  0
 29  4  1  0
 15  6  1  0
 27 21  1  0
 14  8  1  0
  3 30  1  0
  5 31  1  0
  5 32  1  0
  7 33  1  0
  9 34  1  0
 10 35  1  0
 13 36  1  0
 15 37  1  0
 16 38  1  0
 16 39  1  0
 19 40  1  0
 19 41  1  0
 20 42  1  0
 20 43  1  0
 24 44  1  0
 25 45  1  0
 26 46  1  0
M  END
$$$$
