
     RDKit          3D

339349  0  0  0  0  0  0  0  0999 V2000
    5.6903   -5.6971   -0.2995 C   0  0  0  0  0  0  0  0  0  0  0  0
    5.7652   -4.1977   -0.6167 C   0  0  2  0  0  0  0  0  0  0  0  0
    7.1040   -3.8783   -1.1062 N   0  0  0  0  0  0  0  0  0  0  0  0
    7.4935   -4.2583   -2.3712 C   0  0  0  0  0  0  0  0  0  0  0  0
    6.6800   -4.6292   -3.2181 O   0  0  0  0  0  0  0  0  0  0  0  0
    9.0132   -4.4248   -2.5915 C   0  0  2  0  0  0  0  0  0  0  0  0
    9.4932   -5.6822   -1.8458 C   0  0  0  0  0  0  0  0  0  0  0  0
   10.9124   -6.1492   -2.2126 C   0  0  0  0  0  0  0  0  0  0  0  0
   11.1218   -6.4335   -3.7004 C   0  0  0  0  0  0  0  0  0  0  0  0
   10.1190   -7.3753   -4.1660 N   0  0  0  0  0  0  0  0  0  0  0  0
    9.8367   -7.5096   -5.4790 C   0  0  0  0  0  0  0  0  0  0  0  0
   10.3156   -6.7695   -6.4074 N   0  0  0  0  0  0  0  0  0  0  0  0
    8.9721   -8.5173   -5.6949 N   0  0  0  0  0  0  0  0  0  0  0  0
    9.8301   -3.2408   -2.3154 N   0  0  0  0  0  0  0  0  0  0  0  0
   10.0828   -2.7180   -1.0644 C   0  0  0  0  0  0  0  0  0  0  0  0
    9.5497   -3.1536   -0.0479 O   0  0  0  0  0  0  0  0  0  0  0  0
   11.1541   -1.6100   -1.0474 C   0  0  2  0  0  0  0  0  0  0  0  0
   12.5572   -2.2387   -0.9424 C   0  0  0  0  0  0  0  0  0  0  0  0
   12.9777   -2.6416    0.4574 C   0  0  0  0  0  0  0  0  0  0  0  0
   12.4904   -3.8029    1.0616 C   0  0  0  0  0  0  0  0  0  0  0  0
   12.8283   -4.1128    2.3829 C   0  0  0  0  0  0  0  0  0  0  0  0
   13.6632   -3.2628    3.1294 C   0  0  0  0  0  0  0  0  0  0  0  0
   13.9765   -3.5412    4.4726 C   0  0  0  0  0  0  0  0  0  0  0  0
   14.7959   -2.6786    5.2044 C   0  0  0  0  0  0  0  0  0  0  0  0
   15.3271   -1.5460    4.5982 C   0  0  0  0  0  0  0  0  0  0  0  0
   15.0320   -1.2624    3.2625 C   0  0  0  0  0  0  0  0  0  0  0  0
   14.1894   -2.1079    2.5192 C   0  0  0  0  0  0  0  0  0  0  0  0
   13.8446   -1.8119    1.1879 C   0  0  0  0  0  0  0  0  0  0  0  0
   10.8486   -0.6301   -0.0151 N   0  0  0  0  0  0  0  0  0  0  0  0
   11.4002    0.6258   -0.0476 C   0  0  0  0  0  0  0  0  0  0  0  0
   12.2158    0.9485   -0.9092 O   0  0  0  0  0  0  0  0  0  0  0  0
   10.9355    1.6002    1.0747 C   0  0  1  0  0  0  0  0  0  0  0  0
   11.5737    1.2693    2.4269 C   0  0  0  0  0  0  0  0  0  0  0  0
   13.0210    1.7364    2.5226 C   0  0  0  0  0  0  0  0  0  0  0  0
   13.1427    3.2105    2.1640 C   0  0  0  0  0  0  0  0  0  0  0  0
   12.5576    3.4925    0.7866 C   0  0  0  0  0  0  0  0  0  0  0  0
   11.1842    2.9991    0.6649 N   0  0  0  0  0  0  0  0  0  0  0  0
   10.1788    3.6113   -0.0878 C   0  0  0  0  0  0  0  0  0  0  0  0
    9.0312    3.1577   -0.1170 O   0  0  0  0  0  0  0  0  0  0  0  0
   10.5300    4.8723   -0.9224 C   0  0  1  0  0  0  0  0  0  0  0  0
   11.2422    4.4354   -2.2226 C   0  0  2  0  0  0  0  0  0  0  0  0
   12.3144    5.4295   -2.6514 C   0  0  0  0  0  0  0  0  0  0  0  0
   10.3051    4.3020   -3.3033 O   0  0  0  0  0  0  0  0  0  0  0  0
    9.2741    5.5794   -1.2112 N   0  0  0  0  0  0  0  0  0  0  0  0
    8.7405    6.4097   -0.2448 C   0  0  0  0  0  0  0  0  0  0  0  0
    9.3448    6.6907    0.7938 O   0  0  0  0  0  0  0  0  0  0  0  0
    7.2721    6.7940   -0.4830 C   0  0  2  0  0  0  0  0  0  0  0  0
    7.0122    8.2451   -0.0627 C   0  0  0  0  0  0  0  0  0  0  0  0
    7.7357    9.2433   -0.9457 C   0  0  0  0  0  0  0  0  0  0  0  0
    7.1799    9.6460   -2.1693 C   0  0  0  0  0  0  0  0  0  0  0  0
    7.8563   10.5526   -2.9852 C   0  0  0  0  0  0  0  0  0  0  0  0
    9.0889   11.0525   -2.5795 C   0  0  0  0  0  0  0  0  0  0  0  0
    9.7393   11.9252   -3.3646 F   0  0  0  0  0  0  0  0  0  0  0  0
    9.6604   10.6619   -1.3750 C   0  0  0  0  0  0  0  0  0  0  0  0
    8.9842    9.7574   -0.5573 C   0  0  0  0  0  0  0  0  0  0  0  0
    6.5105    5.8347    0.3195 N   0  0  0  0  0  0  0  0  0  0  0  0
    5.1542    5.6795    0.2108 C   0  0  0  0  0  0  0  0  0  0  0  0
    4.4693    6.3538   -0.5634 O   0  0  0  0  0  0  0  0  0  0  0  0
    4.5363    4.6134    1.1356 C   0  0  1  0  0  0  0  0  0  0  0  0
    4.2963    5.1427    2.5588 C   0  0  0  0  0  0  0  0  0  0  0  0
    5.5353    5.5418    3.3223 C   0  0  0  0  0  0  0  0  0  0  0  0
    6.3836    4.5643    3.8604 C   0  0  0  0  0  0  0  0  0  0  0  0
    7.5245    4.9404    4.5782 C   0  0  0  0  0  0  0  0  0  0  0  0
    7.8261    6.2928    4.7661 C   0  0  0  0  0  0  0  0  0  0  0  0
    8.9804    6.6682    5.5305 C   0  0  0  0  0  0  0  0  0  0  0  0
    9.9145    6.9313    6.1640 N   0  0  0  0  0  0  0  0  0  0  0  0
    6.9858    7.2691    4.2281 C   0  0  0  0  0  0  0  0  0  0  0  0
    5.8453    6.8971    3.5131 C   0  0  0  0  0  0  0  0  0  0  0  0
    3.2522    4.2408    0.5327 N   0  0  0  0  0  0  0  0  0  0  0  0
    2.7943    2.9491    0.5062 C   0  0  0  0  0  0  0  0  0  0  0  0
    3.4361    2.0113    0.9714 O   0  0  0  0  0  0  0  0  0  0  0  0
    1.4382    2.7040   -0.0627 C   0  0  0  0  0  0  0  0  0  0  0  0
    0.7385    3.6416   -0.8280 C   0  0  0  0  0  0  0  0  0  0  0  0
   -0.5830    3.3804   -1.2207 C   0  0  0  0  0  0  0  0  0  0  0  0
   -1.1943    2.1633   -0.9108 C   0  0  0  0  0  0  0  0  0  0  0  0
   -0.4732    1.2019   -0.1942 C   0  0  0  0  0  0  0  0  0  0  0  0
    0.8236    1.4806    0.2463 C   0  0  0  0  0  0  0  0  0  0  0  0
   -1.1436   -0.0824    0.1444 C   0  0  0  0  0  0  0  0  0  0  0  0
   -2.3634   -0.1168    0.2627 O   0  0  0  0  0  0  0  0  0  0  0  0
   -0.3098   -1.1688    0.2922 N   0  0  0  0  0  0  0  0  0  0  0  0
   -0.8392   -2.5157    0.4753 C   0  0  0  0  0  0  0  0  0  0  0  0
    0.0253   -3.4205    1.3688 C   0  0  2  0  0  0  0  0  0  0  0  0
    1.4197   -2.9946    1.4810 N   0  0  0  0  0  0  0  0  0  0  0  0
    2.1949   -3.4697    2.5240 C   0  0  0  0  0  0  0  0  0  0  0  0
    1.7305   -4.2057    3.3970 O   0  0  0  0  0  0  0  0  0  0  0  0
    3.6879   -3.0765    2.4161 C   0  0  1  0  0  0  0  0  0  0  0  0
    4.4837   -3.5983    3.6008 C   0  0  0  0  0  0  0  0  0  0  0  0
    4.1552   -3.6278    1.1441 N   0  0  0  0  0  0  0  0  0  0  0  0
    5.4096   -3.3648    0.6348 C   0  0  0  0  0  0  0  0  0  0  0  0
    6.1622   -2.5254    1.1271 O   0  0  0  0  0  0  0  0  0  0  0  0
    0.0347   -4.8394    0.7752 C   0  0  0  0  0  0  0  0  0  0  0  0
    0.3875   -5.0664   -0.3801 O   0  0  0  0  0  0  0  0  0  0  0  0
   -0.2812   -5.8436    1.6731 N   0  0  0  0  0  0  0  0  0  0  0  0
   -0.3075   -7.2576    1.2217 C   0  0  1  0  0  0  0  0  0  0  0  0
   -0.2984   -8.2136    2.4266 C   0  0  0  0  0  0  0  0  0  0  0  0
   -0.1357   -9.6731    2.0608 C   0  0  0  0  0  0  0  0  0  0  0  0
   -1.2400  -10.5386    2.0619 C   0  0  0  0  0  0  0  0  0  0  0  0
   -1.0881  -11.8770    1.7032 C   0  0  0  0  0  0  0  0  0  0  0  0
    0.1638  -12.3684    1.3405 C   0  0  0  0  0  0  0  0  0  0  0  0
    1.2663  -11.5175    1.3414 C   0  0  0  0  0  0  0  0  0  0  0  0
    1.1207  -10.1762    1.6930 C   0  0  0  0  0  0  0  0  0  0  0  0
   -1.5979   -7.4914    0.3961 C   0  0  0  0  0  0  0  0  0  0  0  0
   -1.7067   -8.3719   -0.4472 O   0  0  0  0  0  0  0  0  0  0  0  0
   -2.6783   -6.7388    0.8137 N   0  0  0  0  0  0  0  0  0  0  0  0
   -3.9662   -6.8136    0.1365 C   0  0  1  0  0  0  0  0  0  0  0  0
   -4.9522   -7.6576    0.9668 C   0  0  0  0  0  0  0  0  0  0  0  0
   -5.7772   -8.5905    0.1113 C   0  0  0  0  0  0  0  0  0  0  0  0
   -5.1508   -9.6305   -0.5884 C   0  0  0  0  0  0  0  0  0  0  0  0
   -5.8995  -10.4879   -1.3946 C   0  0  0  0  0  0  0  0  0  0  0  0
   -7.2875  -10.3306   -1.5117 C   0  0  0  0  0  0  0  0  0  0  0  0
   -8.0510  -11.1874   -2.3215 C   0  0  0  0  0  0  0  0  0  0  0  0
   -9.4325  -11.0182   -2.4348 C   0  0  0  0  0  0  0  0  0  0  0  0
  -10.0642   -9.9920   -1.7383 C   0  0  0  0  0  0  0  0  0  0  0  0
   -9.3199   -9.1369   -0.9240 C   0  0  0  0  0  0  0  0  0  0  0  0
   -7.9312   -9.2943   -0.7980 C   0  0  0  0  0  0  0  0  0  0  0  0
   -7.1656   -8.4377    0.0141 C   0  0  0  0  0  0  0  0  0  0  0  0
   -4.4802   -5.3782   -0.0674 C   0  0  0  0  0  0  0  0  0  0  0  0
   -3.9439   -4.4075    0.4647 O   0  0  0  0  0  0  0  0  0  0  0  0
   -5.5735   -5.2741   -0.9036 N   0  0  0  0  0  0  0  0  0  0  0  0
   -6.2637   -4.0035   -1.1107 C   0  0  1  0  0  0  0  0  0  0  0  0
   -6.7390   -3.8494   -2.5695 C   0  0  0  0  0  0  0  0  0  0  0  0
   -8.1154   -4.4225   -2.9387 C   0  0  0  0  0  0  0  0  0  0  0  0
   -8.2758   -5.9232   -2.6976 C   0  0  0  0  0  0  0  0  0  0  0  0
   -9.4990   -6.4455   -3.2894 N   0  0  0  0  0  0  0  0  0  0  0  0
  -10.7263   -6.1289   -2.7975 C   0  0  0  0  0  0  0  0  0  0  0  0
  -10.9767   -5.1868   -1.9718 N   0  0  0  0  0  0  0  0  0  0  0  0
  -11.6866   -6.9140   -3.3325 N   0  0  0  0  0  0  0  0  0  0  0  0
   -7.4049   -3.8454   -0.0776 C   0  0  0  0  0  0  0  0  0  0  0  0
   -7.7806   -4.7732    0.6399 O   0  0  0  0  0  0  0  0  0  0  0  0
   -7.9729   -2.5806   -0.0500 N   0  0  0  0  0  0  0  0  0  0  0  0
   -9.2398   -2.3606    0.6479 C   0  0  1  0  0  0  0  0  0  0  0  0
   -9.0742   -2.4564    2.1762 C   0  0  0  0  0  0  0  0  0  0  0  0
  -10.4224   -2.6815    2.8731 C   0  0  0  0  0  0  0  0  0  0  0  0
  -10.2817   -3.3637    4.2378 C   0  0  0  0  0  0  0  0  0  0  0  0
   -9.7486   -4.7109    4.0957 N   0  0  0  0  0  0  0  0  0  0  0  0
  -10.3951   -5.6849    3.4234 C   0  0  0  0  0  0  0  0  0  0  0  0
  -11.6386   -5.9889    3.5205 N   0  0  0  0  0  0  0  0  0  0  0  0
   -9.5887   -6.3756    2.5901 N   0  0  0  0  0  0  0  0  0  0  0  0
   -9.8047   -0.9715    0.3233 C   0  0  0  0  0  0  0  0  0  0  0  0
  -11.0040   -0.7067    0.4013 O   0  0  0  0  0  0  0  0  0  0  0  0
   -8.8554    0.0108    0.1350 N   0  0  0  0  0  0  0  0  0  0  0  0
   -9.2446    1.4189    0.1276 C   0  0  1  0  0  0  0  0  0  0  0  0
   -9.4258    1.8899    1.5873 C   0  0  0  0  0  0  0  0  0  0  0  0
  -10.5850    2.8670    1.8358 C   0  0  0  0  0  0  0  0  0  0  0  0
  -11.9701    2.3079    1.4913 C   0  0  0  0  0  0  0  0  0  0  0  0
  -12.9378    3.3890    1.3944 N   0  0  0  0  0  0  0  0  0  0  0  0
  -12.9558    4.3313    0.4260 C   0  0  0  0  0  0  0  0  0  0  0  0
  -12.2598    4.3706   -0.6511 N   0  0  0  0  0  0  0  0  0  0  0  0
  -13.8442    5.3017    0.6876 N   0  0  0  0  0  0  0  0  0  0  0  0
   -8.2162    2.2475   -0.6781 C   0  0  0  0  0  0  0  0  0  0  0  0
   -7.2229    1.7423   -1.2016 O   0  0  0  0  0  0  0  0  0  0  0  0
   -8.5455    3.5746   -0.8342 N   0  0  0  0  0  0  0  0  0  0  0  0
   -7.7321    4.4953   -1.6146 C   0  0  1  0  0  0  0  0  0  0  0  0
   -8.5896    5.6892   -2.0663 C   0  0  0  0  0  0  0  0  0  0  0  0
   -9.7426    5.2899   -2.9965 C   0  0  0  0  0  0  0  0  0  0  0  0
  -10.7230    6.4412   -3.2269 C   0  0  0  0  0  0  0  0  0  0  0  0
  -11.4484    6.7489   -2.0110 N   0  0  0  0  0  0  0  0  0  0  0  0
  -12.2752    7.8095   -1.8695 C   0  0  0  0  0  0  0  0  0  0  0  0
  -12.4270    8.8127   -2.6600 N   0  0  0  0  0  0  0  0  0  0  0  0
  -12.9831    7.7565   -0.7258 N   0  0  0  0  0  0  0  0  0  0  0  0
   -6.6074    5.0449   -0.7195 C   0  0  0  0  0  0  0  0  0  0  0  0
   -6.7328    5.1740    0.4968 O   0  0  0  0  0  0  0  0  0  0  0  0
   -5.5166    5.5226   -1.4041 N   0  0  0  0  0  0  0  0  0  0  0  0
   -4.4456    6.2628   -0.7382 C   0  0  2  0  0  0  0  0  0  0  0  0
   -4.7877    7.7689   -0.6199 C   0  0  0  0  0  0  0  0  0  0  0  0
   -4.0233    8.6567   -0.9809 O   0  0  0  0  0  0  0  0  0  0  0  0
   -6.0009    8.0334   -0.0187 N   0  0  0  0  0  0  0  0  0  0  0  0
   -6.3865    9.3726    0.4359 C   0  0  1  0  0  0  0  0  0  0  0  0
   -6.5561   10.3929   -0.6994 C   0  0  0  0  0  0  0  0  0  0  0  0
   -7.4668    9.9844   -1.8637 C   0  0  0  0  0  0  0  0  0  0  0  0
   -8.9756    9.9359   -1.6012 C   0  0  0  0  0  0  0  0  0  0  0  0
   -9.6698   11.3003   -1.4835 C   0  0  0  0  0  0  0  0  0  0  0  0
   -9.2587   12.0605   -0.3158 N   0  0  0  0  0  0  0  0  0  0  0  0
   -7.6191    9.2888    1.3463 C   0  0  0  0  0  0  0  0  0  0  0  0
   -8.2333   10.2079    1.8622 O   0  0  0  0  0  0  0  0  0  0  0  0
   -7.9990    8.0132    1.6060 O   0  0  0  0  0  0  0  0  0  0  0  0
   -3.1051    6.0850   -1.4655 C   0  0  0  0  0  0  0  0  0  0  0  0
   -2.5749    4.7349   -1.3494 N   0  0  0  0  0  0  0  0  0  0  0  0
   -1.3254    4.4771   -1.8735 C   0  0  0  0  0  0  0  0  0  0  0  0
   -0.7855    5.1648   -2.7274 O   0  0  0  0  0  0  0  0  0  0  0  0
    5.9303   -6.3014   -1.1821 H   0  0  0  0  0  0  0  0  0  0  0  0
    6.4037   -5.9645    0.4869 H   0  0  0  0  0  0  0  0  0  0  0  0
    4.6946   -6.0029    0.0307 H   0  0  0  0  0  0  0  0  0  0  0  0
    5.0433   -3.9481   -1.4014 H   0  0  0  0  0  0  0  0  0  0  0  0
    7.8240   -3.6563   -0.4144 H   0  0  0  0  0  0  0  0  0  0  0  0
    9.1169   -4.5767   -3.6729 H   0  0  0  0  0  0  0  0  0  0  0  0
    9.4563   -5.5274   -0.7605 H   0  0  0  0  0  0  0  0  0  0  0  0
    8.7886   -6.5012   -2.0400 H   0  0  0  0  0  0  0  0  0  0  0  0
   11.1207   -7.0656   -1.6397 H   0  0  0  0  0  0  0  0  0  0  0  0
   11.6465   -5.4056   -1.8828 H   0  0  0  0  0  0  0  0  0  0  0  0
   11.0744   -5.4962   -4.2615 H   0  0  0  0  0  0  0  0  0  0  0  0
   12.1210   -6.8555   -3.8522 H   0  0  0  0  0  0  0  0  0  0  0  0
   10.1386   -8.2601   -3.6701 H   0  0  0  0  0  0  0  0  0  0  0  0
    9.9597   -7.0845   -7.3101 H   0  0  0  0  0  0  0  0  0  0  0  0
    8.2724   -8.5847   -4.9665 H   0  0  0  0  0  0  0  0  0  0  0  0
    8.5286   -8.4903   -6.6031 H   0  0  0  0  0  0  0  0  0  0  0  0
   10.0711   -2.6776   -3.1225 H   0  0  0  0  0  0  0  0  0  0  0  0
   11.0876   -1.0851   -2.0105 H   0  0  0  0  0  0  0  0  0  0  0  0
   13.2936   -1.5237   -1.3329 H   0  0  0  0  0  0  0  0  0  0  0  0
   12.6372   -3.1172   -1.5986 H   0  0  0  0  0  0  0  0  0  0  0  0
   11.8228   -4.4743    0.5262 H   0  0  0  0  0  0  0  0  0  0  0  0
   12.4191   -5.0117    2.8338 H   0  0  0  0  0  0  0  0  0  0  0  0
   13.5721   -4.4254    4.9588 H   0  0  0  0  0  0  0  0  0  0  0  0
   15.0237   -2.8968    6.2432 H   0  0  0  0  0  0  0  0  0  0  0  0
   15.9723   -0.8771    5.1652 H   0  0  0  0  0  0  0  0  0  0  0  0
   15.4570   -0.3713    2.8080 H   0  0  0  0  0  0  0  0  0  0  0  0
   14.2388   -0.9158    0.7148 H   0  0  0  0  0  0  0  0  0  0  0  0
   10.2574   -0.9252    0.7549 H   0  0  0  0  0  0  0  0  0  0  0  0
    9.8544    1.4409    1.1757 H   0  0  0  0  0  0  0  0  0  0  0  0
   11.5227    0.1945    2.6328 H   0  0  0  0  0  0  0  0  0  0  0  0
   10.9952    1.7688    3.2117 H   0  0  0  0  0  0  0  0  0  0  0  0
   13.3964    1.5771    3.5417 H   0  0  0  0  0  0  0  0  0  0  0  0
   13.6545    1.1511    1.8515 H   0  0  0  0  0  0  0  0  0  0  0  0
   14.1967    3.5146    2.1895 H   0  0  0  0  0  0  0  0  0  0  0  0
   12.6164    3.8118    2.9141 H   0  0  0  0  0  0  0  0  0  0  0  0
   13.1662    3.0218    0.0064 H   0  0  0  0  0  0  0  0  0  0  0  0
   12.6076    4.5665    0.6158 H   0  0  0  0  0  0  0  0  0  0  0  0
   11.1579    5.5325   -0.3200 H   0  0  0  0  0  0  0  0  0  0  0  0
   11.7242    3.4592   -2.1020 H   0  0  0  0  0  0  0  0  0  0  0  0
   13.1285    5.4718   -1.9216 H   0  0  0  0  0  0  0  0  0  0  0  0
   11.8988    6.4349   -2.7736 H   0  0  0  0  0  0  0  0  0  0  0  0
   12.7305    5.1395   -3.6233 H   0  0  0  0  0  0  0  0  0  0  0  0
    9.9682    5.1943   -3.4993 H   0  0  0  0  0  0  0  0  0  0  0  0
    8.6061    5.0021   -1.7155 H   0  0  0  0  0  0  0  0  0  0  0  0
    7.0047    6.6452   -1.5406 H   0  0  0  0  0  0  0  0  0  0  0  0
    7.3017    8.4095    0.9815 H   0  0  0  0  0  0  0  0  0  0  0  0
    5.9425    8.4728   -0.1019 H   0  0  0  0  0  0  0  0  0  0  0  0
    6.2148    9.2600   -2.4883 H   0  0  0  0  0  0  0  0  0  0  0  0
    7.4300   10.8788   -3.9290 H   0  0  0  0  0  0  0  0  0  0  0  0
   10.6228   11.0655   -1.0773 H   0  0  0  0  0  0  0  0  0  0  0  0
    9.4385    9.4497    0.3823 H   0  0  0  0  0  0  0  0  0  0  0  0
    7.0226    5.2812    1.0046 H   0  0  0  0  0  0  0  0  0  0  0  0
    5.1921    3.7352    1.1507 H   0  0  0  0  0  0  0  0  0  0  0  0
    3.6008    5.9938    2.5278 H   0  0  0  0  0  0  0  0  0  0  0  0
    3.7706    4.3748    3.1524 H   0  0  0  0  0  0  0  0  0  0  0  0
    6.1577    3.5030    3.7392 H   0  0  0  0  0  0  0  0  0  0  0  0
    8.1666    4.1663    4.9982 H   0  0  0  0  0  0  0  0  0  0  0  0
    7.2076    8.3245    4.3738 H   0  0  0  0  0  0  0  0  0  0  0  0
    5.2022    7.6735    3.1023 H   0  0  0  0  0  0  0  0  0  0  0  0
    2.7736    4.9936    0.0547 H   0  0  0  0  0  0  0  0  0  0  0  0
    1.1786    4.5942   -1.1139 H   0  0  0  0  0  0  0  0  0  0  0  0
   -2.2173    1.9581   -1.2273 H   0  0  0  0  0  0  0  0  0  0  0  0
    1.3562    0.7654    0.8682 H   0  0  0  0  0  0  0  0  0  0  0  0
    0.6327   -1.0964   -0.0687 H   0  0  0  0  0  0  0  0  0  0  0  0
   -1.8385   -2.4429    0.9314 H   0  0  0  0  0  0  0  0  0  0  0  0
   -1.0080   -2.9301   -0.5323 H   0  0  0  0  0  0  0  0  0  0  0  0
   -0.4078   -3.4417    2.3794 H   0  0  0  0  0  0  0  0  0  0  0  0
    1.9200   -2.7591    0.6269 H   0  0  0  0  0  0  0  0  0  0  0  0
    3.7554   -1.9821    2.3706 H   0  0  0  0  0  0  0  0  0  0  0  0
    4.0763   -3.2352    4.5483 H   0  0  0  0  0  0  0  0  0  0  0  0
    5.5268   -3.2778    3.5480 H   0  0  0  0  0  0  0  0  0  0  0  0
    4.4805   -4.6934    3.6315 H   0  0  0  0  0  0  0  0  0  0  0  0
    3.6414   -4.4116    0.7638 H   0  0  0  0  0  0  0  0  0  0  0  0
   -0.0006   -5.6623    2.6364 H   0  0  0  0  0  0  0  0  0  0  0  0
    0.5522   -7.4230    0.5626 H   0  0  0  0  0  0  0  0  0  0  0  0
    0.5208   -7.9386    3.1073 H   0  0  0  0  0  0  0  0  0  0  0  0
   -1.2159   -8.0827    3.0189 H   0  0  0  0  0  0  0  0  0  0  0  0
   -2.2275  -10.1682    2.3303 H   0  0  0  0  0  0  0  0  0  0  0  0
   -1.9554  -12.5320    1.6963 H   0  0  0  0  0  0  0  0  0  0  0  0
    0.2735  -13.4100    1.0603 H   0  0  0  0  0  0  0  0  0  0  0  0
    2.2397  -11.9043    1.0558 H   0  0  0  0  0  0  0  0  0  0  0  0
    1.9936   -9.5275    1.6756 H   0  0  0  0  0  0  0  0  0  0  0  0
   -2.4849   -5.9044    1.3602 H   0  0  0  0  0  0  0  0  0  0  0  0
   -3.8058   -7.2312   -0.8652 H   0  0  0  0  0  0  0  0  0  0  0  0
   -5.6048   -7.0107    1.5643 H   0  0  0  0  0  0  0  0  0  0  0  0
   -4.4119   -8.2810    1.6921 H   0  0  0  0  0  0  0  0  0  0  0  0
   -4.0743   -9.7763   -0.5192 H   0  0  0  0  0  0  0  0  0  0  0  0
   -5.3857  -11.2819   -1.9297 H   0  0  0  0  0  0  0  0  0  0  0  0
   -7.5722  -11.9952   -2.8692 H   0  0  0  0  0  0  0  0  0  0  0  0
  -10.0117  -11.6898   -3.0628 H   0  0  0  0  0  0  0  0  0  0  0  0
  -11.1391   -9.8555   -1.8230 H   0  0  0  0  0  0  0  0  0  0  0  0
   -9.8368   -8.3387   -0.3941 H   0  0  0  0  0  0  0  0  0  0  0  0
   -7.6618   -7.6439    0.5722 H   0  0  0  0  0  0  0  0  0  0  0  0
   -6.1181   -6.1176   -1.0380 H   0  0  0  0  0  0  0  0  0  0  0  0
   -5.5415   -3.2026   -0.9091 H   0  0  0  0  0  0  0  0  0  0  0  0
   -6.7796   -2.7744   -2.8016 H   0  0  0  0  0  0  0  0  0  0  0  0
   -5.9837   -4.2764   -3.2468 H   0  0  0  0  0  0  0  0  0  0  0  0
   -8.3000   -4.2081   -4.0011 H   0  0  0  0  0  0  0  0  0  0  0  0
   -8.8914   -3.8650   -2.3982 H   0  0  0  0  0  0  0  0  0  0  0  0
   -7.4291   -6.4470   -3.1616 H   0  0  0  0  0  0  0  0  0  0  0  0
   -8.2633   -6.1514   -1.6298 H   0  0  0  0  0  0  0  0  0  0  0  0
   -9.4126   -7.4423   -3.4749 H   0  0  0  0  0  0  0  0  0  0  0  0
  -11.9798   -5.1770   -1.7679 H   0  0  0  0  0  0  0  0  0  0  0  0
  -12.6156   -6.5196   -3.2881 H   0  0  0  0  0  0  0  0  0  0  0  0
  -11.4685   -7.2189   -4.2732 H   0  0  0  0  0  0  0  0  0  0  0  0
   -7.8176   -2.0018   -0.8699 H   0  0  0  0  0  0  0  0  0  0  0  0
   -9.9435   -3.1134    0.2723 H   0  0  0  0  0  0  0  0  0  0  0  0
   -8.3753   -3.2519    2.4321 H   0  0  0  0  0  0  0  0  0  0  0  0
   -8.6173   -1.5373    2.5704 H   0  0  0  0  0  0  0  0  0  0  0  0
  -10.9196   -1.7149    3.0125 H   0  0  0  0  0  0  0  0  0  0  0  0
  -11.0875   -3.2819    2.2358 H   0  0  0  0  0  0  0  0  0  0  0  0
  -11.2583   -3.4035    4.7234 H   0  0  0  0  0  0  0  0  0  0  0  0
   -9.6171   -2.7786    4.8814 H   0  0  0  0  0  0  0  0  0  0  0  0
   -8.7480   -4.7375    3.9392 H   0  0  0  0  0  0  0  0  0  0  0  0
  -12.0550   -5.4002    4.2443 H   0  0  0  0  0  0  0  0  0  0  0  0
   -9.0340   -5.7935    1.9638 H   0  0  0  0  0  0  0  0  0  0  0  0
  -10.1653   -7.0123    2.0443 H   0  0  0  0  0  0  0  0  0  0  0  0
   -7.8673   -0.1987    0.2636 H   0  0  0  0  0  0  0  0  0  0  0  0
  -10.1825    1.4898   -0.4350 H   0  0  0  0  0  0  0  0  0  0  0  0
   -9.6010    1.0296    2.2469 H   0  0  0  0  0  0  0  0  0  0  0  0
   -8.4950    2.3547    1.9384 H   0  0  0  0  0  0  0  0  0  0  0  0
  -10.4018    3.8062    1.3049 H   0  0  0  0  0  0  0  0  0  0  0  0
  -10.5788    3.1465    2.8957 H   0  0  0  0  0  0  0  0  0  0  0  0
  -11.9794    1.7578    0.5480 H   0  0  0  0  0  0  0  0  0  0  0  0
  -12.2884    1.6119    2.2709 H   0  0  0  0  0  0  0  0  0  0  0  0
  -13.2784    3.7230    2.2889 H   0  0  0  0  0  0  0  0  0  0  0  0
  -11.6929    3.5290   -0.7039 H   0  0  0  0  0  0  0  0  0  0  0  0
  -14.7635    4.9314    0.8950 H   0  0  0  0  0  0  0  0  0  0  0  0
  -13.9170    5.9378   -0.1082 H   0  0  0  0  0  0  0  0  0  0  0  0
   -9.0749    4.0150   -0.0935 H   0  0  0  0  0  0  0  0  0  0  0  0
   -7.2994    3.9626   -2.4699 H   0  0  0  0  0  0  0  0  0  0  0  0
   -8.9881    6.2023   -1.1792 H   0  0  0  0  0  0  0  0  0  0  0  0
   -7.9597    6.4249   -2.5827 H   0  0  0  0  0  0  0  0  0  0  0  0
   -9.3288    4.9786   -3.9677 H   0  0  0  0  0  0  0  0  0  0  0  0
  -10.2850    4.4264   -2.5997 H   0  0  0  0  0  0  0  0  0  0  0  0
  -10.1732    7.3192   -3.5779 H   0  0  0  0  0  0  0  0  0  0  0  0
  -11.4406    6.1591   -4.0052 H   0  0  0  0  0  0  0  0  0  0  0  0
  -11.8118    5.9061   -1.5392 H   0  0  0  0  0  0  0  0  0  0  0  0
  -11.8249    8.6995   -3.4749 H   0  0  0  0  0  0  0  0  0  0  0  0
  -12.4208    7.4409    0.0567 H   0  0  0  0  0  0  0  0  0  0  0  0
  -13.4073    8.6614   -0.5473 H   0  0  0  0  0  0  0  0  0  0  0  0
   -5.5203    5.5175   -2.4174 H   0  0  0  0  0  0  0  0  0  0  0  0
   -4.3477    5.8890    0.2885 H   0  0  0  0  0  0  0  0  0  0  0  0
   -6.4439    7.2633    0.4852 H   0  0  0  0  0  0  0  0  0  0  0  0
   -5.5686    9.7154    1.0858 H   0  0  0  0  0  0  0  0  0  0  0  0
   -5.5692   10.5893   -1.1325 H   0  0  0  0  0  0  0  0  0  0  0  0
   -6.8633   11.3554   -0.2823 H   0  0  0  0  0  0  0  0  0  0  0  0
   -7.1536    8.9991   -2.2343 H   0  0  0  0  0  0  0  0  0  0  0  0
   -7.2863   10.6789   -2.6914 H   0  0  0  0  0  0  0  0  0  0  0  0
   -9.2108    9.3083   -0.7360 H   0  0  0  0  0  0  0  0  0  0  0  0
   -9.4336    9.4306   -2.4630 H   0  0  0  0  0  0  0  0  0  0  0  0
   -9.4610   11.8947   -2.3817 H   0  0  0  0  0  0  0  0  0  0  0  0
  -10.7530   11.1434   -1.4476 H   0  0  0  0  0  0  0  0  0  0  0  0
   -9.8798   12.8594   -0.1903 H   0  0  0  0  0  0  0  0  0  0  0  0
   -9.3453   11.4924    0.5327 H   0  0  0  0  0  0  0  0  0  0  0  0
   -8.7538    8.1120    2.2218 H   0  0  0  0  0  0  0  0  0  0  0  0
   -3.2029    6.3233   -2.5322 H   0  0  0  0  0  0  0  0  0  0  0  0
   -2.3457    6.7618   -1.0502 H   0  0  0  0  0  0  0  0  0  0  0  0
   -2.8559    4.2072   -0.5303 H   0  0  0  0  0  0  0  0  0  0  0  0
  1  2  1  0
  2  3  1  0
  3  4  1  0
  4  5  2  0
  4  6  1  0
  6  7  1  0
  7  8  1  0
  8  9  1  0
  9 10  1  0
 10 11  1  0
 11 12  2  3
 11 13  1  0
  6 14  1  0
 14 15  1  0
 15 16  2  0
 15 17  1  0
 17 18  1  0
 18 19  1  0
 19 20  1  0
 20 21  2  0
 21 22  1  0
 22 23  2  0
 23 24  1  0
 24 25  2  0
 25 26  1  0
 26 27  2  0
 27 28  1  0
 17 29  1  0
 29 30  1  0
 30 31  2  0
 30 32  1  0
 32 33  1  0
 33 34  1  0
 34 35  1  0
 35 36  1  0
 36 37  1  0
 37 38  1  0
 38 39  2  0
 38 40  1  0
 40 41  1  0
 41 42  1  0
 41 43  1  0
 40 44  1  0
 44 45  1  0
 45 46  2  0
 45 47  1  0
 47 48  1  0
 48 49  1  0
 49 50  1  0
 50 51  2  0
 51 52  1  0
 52 53  1  0
 52 54  2  0
 54 55  1  0
 47 56  1  0
 56 57  1  0
 57 58  2  0
 57 59  1  0
 59 60  1  0
 60 61  1  0
 61 62  1  0
 62 63  2  0
 63 64  1  0
 64 65  1  0
 65 66  3  0
 64 67  2  0
 67 68  1  0
 59 69  1  0
 69 70  1  0
 70 71  2  0
 70 72  1  0
 72 73  1  0
 73 74  2  0
 74 75  1  0
 75 76  2  0
 76 77  1  0
 76 78  1  0
 78 79  2  0
 78 80  1  0
 80 81  1  0
 81 82  1  0
 82 83  1  0
 83 84  1  0
 84 85  2  0
 84 86  1  0
 86 87  1  0
 86 88  1  0
 88 89  1  0
 89 90  2  0
 82 91  1  0
 91 92  2  0
 91 93  1  0
 93 94  1  0
 94 95  1  0
 95 96  1  0
 96 97  2  0
 97 98  1  0
 98 99  2  0
 99100  1  0
100101  2  0
 94102  1  0
102103  2  0
102104  1  0
104105  1  0
105106  1  0
106107  1  0
107108  1  0
108109  2  0
109110  1  0
110111  2  0
111112  1  0
112113  2  0
113114  1  0
114115  2  0
115116  1  0
105117  1  0
117118  2  0
117119  1  0
119120  1  0
120121  1  0
121122  1  0
122123  1  0
123124  1  0
124125  1  0
125126  2  3
125127  1  0
120128  1  0
128129  2  0
128130  1  0
130131  1  0
131132  1  0
132133  1  0
133134  1  0
134135  1  0
135136  1  0
136137  2  3
136138  1  0
131139  1  0
139140  2  0
139141  1  0
141142  1  0
142143  1  0
143144  1  0
144145  1  0
145146  1  0
146147  1  0
147148  2  3
147149  1  0
142150  1  0
150151  2  0
150152  1  0
152153  1  0
153154  1  0
154155  1  0
155156  1  0
156157  1  0
157158  1  0
158159  2  3
158160  1  0
153161  1  0
161162  2  0
161163  1  0
163164  1  0
164165  1  0
165166  2  0
165167  1  0
167168  1  0
168169  1  0
169170  1  0
170171  1  0
171172  1  0
172173  1  0
168174  1  0
174175  2  0
174176  1  0
164177  1  0
177178  1  0
178179  1  0
179180  2  0
 89  2  1  0
101 96  1  0
116107  2  0
 28 19  2  0
 37 32  1  0
 55 49  2  0
 68 61  2  0
 77 72  2  0
115110  1  0
 27 22  1  0
179 74  1  0
  1181  1  0
  1182  1  0
  1183  1  0
  2184  1  6
  3185  1  0
  6186  1  6
  7187  1  0
  7188  1  0
  8189  1  0
  8190  1  0
  9191  1  0
  9192  1  0
 10193  1  0
 12194  1  0
 13195  1  0
 13196  1  0
 14197  1  0
 17198  1  6
 18199  1  0
 18200  1  0
 20201  1  0
 21202  1  0
 23203  1  0
 24204  1  0
 25205  1  0
 26206  1  0
 28207  1  0
 29208  1  0
 32209  1  1
 33210  1  0
 33211  1  0
 34212  1  0
 34213  1  0
 35214  1  0
 35215  1  0
 36216  1  0
 36217  1  0
 40218  1  1
 41219  1  1
 42220  1  0
 42221  1  0
 42222  1  0
 43223  1  0
 44224  1  0
 47225  1  6
 48226  1  0
 48227  1  0
 50228  1  0
 51229  1  0
 54230  1  0
 55231  1  0
 56232  1  0
 59233  1  1
 60234  1  0
 60235  1  0
 62236  1  0
 63237  1  0
 67238  1  0
 68239  1  0
 69240  1  0
 73241  1  0
 75242  1  0
 77243  1  0
 80244  1  0
 81245  1  0
 81246  1  0
 82247  1  1
 83248  1  0
 86249  1  6
 87250  1  0
 87251  1  0
 87252  1  0
 88253  1  0
 93254  1  0
 94255  1  6
 95256  1  0
 95257  1  0
 97258  1  0
 98259  1  0
 99260  1  0
100261  1  0
101262  1  0
104263  1  0
105264  1  6
106265  1  0
106266  1  0
108267  1  0
109268  1  0
111269  1  0
112270  1  0
113271  1  0
114272  1  0
116273  1  0
119274  1  0
120275  1  1
121276  1  0
121277  1  0
122278  1  0
122279  1  0
123280  1  0
123281  1  0
124282  1  0
126283  1  0
127284  1  0
127285  1  0
130286  1  0
131287  1  6
132288  1  0
132289  1  0
133290  1  0
133291  1  0
134292  1  0
134293  1  0
135294  1  0
137295  1  0
138296  1  0
138297  1  0
141298  1  0
142299  1  6
143300  1  0
143301  1  0
144302  1  0
144303  1  0
145304  1  0
145305  1  0
146306  1  0
148307  1  0
149308  1  0
149309  1  0
152310  1  0
153311  1  6
154312  1  0
154313  1  0
155314  1  0
155315  1  0
156316  1  0
156317  1  0
157318  1  0
159319  1  0
160320  1  0
160321  1  0
163322  1  0
164323  1  1
167324  1  0
168325  1  1
169326  1  0
169327  1  0
170328  1  0
170329  1  0
171330  1  0
171331  1  0
172332  1  0
172333  1  0
173334  1  0
173335  1  0
176336  1  0
177337  1  0
177338  1  0
178339  1  0
M  END
$$$$
