
     RDKit          3D

343353  0  0  0  0  0  0  0  0999 V2000
   13.7502    6.1370   -0.0869 C   0  0  0  0  0  0  0  0  0  0  0  0
   12.5940    5.5039    0.6814 C   0  0  0  0  0  0  0  0  0  0  0  0
   11.3713    5.1854   -0.2013 C   0  0  1  0  0  0  0  0  0  0  0  0
   11.7011    4.1339   -1.2664 C   0  0  0  0  0  0  0  0  0  0  0  0
   10.1235    4.8214    0.6495 C   0  0  1  0  0  0  0  0  0  0  0  0
    8.9059    5.1281   -0.1249 N   0  0  0  0  0  0  0  0  0  0  0  0
    7.7644    5.5855    0.5140 C   0  0  0  0  0  0  0  0  0  0  0  0
    7.7366    5.8259    1.7207 O   0  0  0  0  0  0  0  0  0  0  0  0
    6.5357    5.6995   -0.4151 C   0  0  2  0  0  0  0  0  0  0  0  0
    6.0382    7.1437   -0.5719 C   0  0  0  0  0  0  0  0  0  0  0  0
    5.4205    7.8001    0.6428 C   0  0  0  0  0  0  0  0  0  0  0  0
    6.2074    8.6009    1.4855 C   0  0  0  0  0  0  0  0  0  0  0  0
    5.6399    9.2270    2.5969 C   0  0  0  0  0  0  0  0  0  0  0  0
    4.2881    9.0483    2.8694 C   0  0  0  0  0  0  0  0  0  0  0  0
    3.7455    9.6352    3.9412 F   0  0  0  0  0  0  0  0  0  0  0  0
    3.4939    8.2509    2.0480 C   0  0  0  0  0  0  0  0  0  0  0  0
    4.0598    7.6298    0.9322 C   0  0  0  0  0  0  0  0  0  0  0  0
    5.4997    4.7751    0.0108 N   0  0  0  0  0  0  0  0  0  0  0  0
    5.4650    3.4923   -0.4744 C   0  0  0  0  0  0  0  0  0  0  0  0
    6.3470    3.0363   -1.2056 O   0  0  0  0  0  0  0  0  0  0  0  0
    4.3138    2.5956    0.0399 C   0  0  1  0  0  0  0  0  0  0  0  0
    4.8344    1.6508    1.1459 C   0  0  0  0  0  0  0  0  0  0  0  0
    5.0191    2.2762    2.5084 C   0  0  0  0  0  0  0  0  0  0  0  0
    6.1765    3.0049    2.8058 C   0  0  0  0  0  0  0  0  0  0  0  0
    6.3260    3.6303    4.0430 C   0  0  0  0  0  0  0  0  0  0  0  0
    5.3314    3.5128    5.0103 C   0  0  0  0  0  0  0  0  0  0  0  0
    4.1839    2.7668    4.7375 C   0  0  0  0  0  0  0  0  0  0  0  0
    4.0296    2.1503    3.4936 C   0  0  0  0  0  0  0  0  0  0  0  0
    3.0774    3.2879    0.4295 N   0  0  0  0  0  0  0  0  0  0  0  0
    2.3539    3.9512   -0.5525 C   0  0  0  0  0  0  0  0  0  0  0  0
    2.8472    4.5244   -1.5167 O   0  0  0  0  0  0  0  0  0  0  0  0
    0.8769    3.8729   -0.4466 C   0  0  0  0  0  0  0  0  0  0  0  0
    0.0870    4.9933   -0.7185 C   0  0  0  0  0  0  0  0  0  0  0  0
   -1.3040    4.8608   -0.7688 C   0  0  0  0  0  0  0  0  0  0  0  0
   -1.8978    3.6092   -0.5619 C   0  0  0  0  0  0  0  0  0  0  0  0
   -1.1079    2.4776   -0.3266 C   0  0  0  0  0  0  0  0  0  0  0  0
    0.2815    2.6220   -0.2407 C   0  0  0  0  0  0  0  0  0  0  0  0
   -1.7815    1.1506   -0.2013 C   0  0  0  0  0  0  0  0  0  0  0  0
   -3.0013    1.1044   -0.0400 O   0  0  0  0  0  0  0  0  0  0  0  0
   -0.9806    0.0458   -0.3254 N   0  0  0  0  0  0  0  0  0  0  0  0
   -1.4437   -1.3309   -0.2340 C   0  0  0  0  0  0  0  0  0  0  0  0
   -0.4154   -2.2378    0.4902 C   0  0  2  0  0  0  0  0  0  0  0  0
    0.7573   -2.6479   -0.3220 N   0  0  0  0  0  0  0  0  0  0  0  0
    1.6624   -1.7446   -0.8574 C   0  0  0  0  0  0  0  0  0  0  0  0
    1.5121   -0.5229   -0.7915 O   0  0  0  0  0  0  0  0  0  0  0  0
    2.9178   -2.3929   -1.4892 C   0  0  1  0  0  0  0  0  0  0  0  0
    3.4198   -1.5192   -2.6386 C   0  0  0  0  0  0  0  0  0  0  0  0
    3.9772   -2.5368   -0.4913 N   0  0  0  0  0  0  0  0  0  0  0  0
    3.8908   -3.5110    0.4836 C   0  0  0  0  0  0  0  0  0  0  0  0
    2.8257   -4.0522    0.7745 O   0  0  0  0  0  0  0  0  0  0  0  0
    5.1779   -3.6931    1.3167 C   0  0  2  0  0  0  0  0  0  0  0  0
    5.1644   -2.6660    2.4472 C   0  0  0  0  0  0  0  0  0  0  0  0
    6.4149   -3.5467    0.5324 N   0  0  0  0  0  0  0  0  0  0  0  0
    6.7359   -4.4860   -0.4328 C   0  0  0  0  0  0  0  0  0  0  0  0
    5.8722   -5.1731   -0.9737 O   0  0  0  0  0  0  0  0  0  0  0  0
    8.2517   -4.7074   -0.7137 C   0  0  2  0  0  0  0  0  0  0  0  0
    8.8144   -5.7164    0.3094 C   0  0  0  0  0  0  0  0  0  0  0  0
   10.3056   -5.9983    0.1058 C   0  0  0  0  0  0  0  0  0  0  0  0
   10.8311   -7.1135    1.0077 C   0  0  0  0  0  0  0  0  0  0  0  0
   12.2639   -6.9855    1.1892 N   0  0  0  0  0  0  0  0  0  0  0  0
   13.2148   -7.3108    0.2900 C   0  0  0  0  0  0  0  0  0  0  0  0
   13.0915   -7.6683   -0.9291 N   0  0  0  0  0  0  0  0  0  0  0  0
   14.4506   -7.1630    0.8107 N   0  0  0  0  0  0  0  0  0  0  0  0
    9.0496   -3.4812   -0.8544 N   0  0  0  0  0  0  0  0  0  0  0  0
    9.4310   -2.6711    0.1882 C   0  0  0  0  0  0  0  0  0  0  0  0
    8.9120   -2.7827    1.3044 O   0  0  0  0  0  0  0  0  0  0  0  0
   10.4885   -1.5790   -0.1227 C   0  0  2  0  0  0  0  0  0  0  0  0
   11.8867   -2.1758   -0.3990 C   0  0  0  0  0  0  0  0  0  0  0  0
   12.0676   -2.8471   -1.7424 C   0  0  0  0  0  0  0  0  0  0  0  0
   12.6257   -4.1285   -1.8081 C   0  0  0  0  0  0  0  0  0  0  0  0
   12.7975   -4.7758   -3.0332 C   0  0  0  0  0  0  0  0  0  0  0  0
   12.4358   -4.1482   -4.2293 C   0  0  0  0  0  0  0  0  0  0  0  0
   12.6038   -4.7877   -5.4677 C   0  0  0  0  0  0  0  0  0  0  0  0
   12.2583   -4.1429   -6.6559 C   0  0  0  0  0  0  0  0  0  0  0  0
   11.7418   -2.8492   -6.6172 C   0  0  0  0  0  0  0  0  0  0  0  0
   11.5697   -2.2025   -5.3921 C   0  0  0  0  0  0  0  0  0  0  0  0
   11.9082   -2.8386   -4.1863 C   0  0  0  0  0  0  0  0  0  0  0  0
   11.7415   -2.1997   -2.9417 C   0  0  0  0  0  0  0  0  0  0  0  0
   10.4946   -0.7140    1.0615 N   0  0  0  0  0  0  0  0  0  0  0  0
   11.0646    0.5445    1.0401 C   0  0  0  0  0  0  0  0  0  0  0  0
   11.7925    0.9162    0.1211 O   0  0  0  0  0  0  0  0  0  0  0  0
   10.7758    1.3849    2.3210 C   0  0  1  0  0  0  0  0  0  0  0  0
   11.7630    0.8610    3.3846 C   0  0  0  0  0  0  0  0  0  0  0  0
   11.8126    1.7340    4.6309 C   0  0  0  0  0  0  0  0  0  0  0  0
   12.1078    3.1687    4.2334 C   0  0  0  0  0  0  0  0  0  0  0  0
   11.0395    3.6774    3.2766 C   0  0  0  0  0  0  0  0  0  0  0  0
   10.8839    2.8426    2.0841 N   0  0  0  0  0  0  0  0  0  0  0  0
   10.0328    3.3225    1.0708 C   0  0  0  0  0  0  0  0  0  0  0  0
    9.2576    2.5596    0.4723 O   0  0  0  0  0  0  0  0  0  0  0  0
   -1.1949   -3.4588    1.0157 C   0  0  0  0  0  0  0  0  0  0  0  0
   -2.0084   -3.3420    1.9314 O   0  0  0  0  0  0  0  0  0  0  0  0
   -0.9593   -4.6442    0.3510 N   0  0  0  0  0  0  0  0  0  0  0  0
   -1.8510   -5.8263    0.3980 C   0  0  1  0  0  0  0  0  0  0  0  0
   -2.6462   -5.9936    1.7012 C   0  0  0  0  0  0  0  0  0  0  0  0
   -3.1431   -7.3911    1.9892 C   0  0  0  0  0  0  0  0  0  0  0  0
   -2.2486   -8.4573    2.1568 C   0  0  0  0  0  0  0  0  0  0  0  0
   -2.7220   -9.7327    2.4720 C   0  0  0  0  0  0  0  0  0  0  0  0
   -4.0894   -9.9494    2.6216 C   0  0  0  0  0  0  0  0  0  0  0  0
   -4.9882   -8.9018    2.4512 C   0  0  0  0  0  0  0  0  0  0  0  0
   -4.5164   -7.6248    2.1440 C   0  0  0  0  0  0  0  0  0  0  0  0
   -2.7230   -5.7584   -0.8829 C   0  0  0  0  0  0  0  0  0  0  0  0
   -2.6023   -4.8389   -1.6944 O   0  0  0  0  0  0  0  0  0  0  0  0
   -3.5331   -6.8414   -1.1533 N   0  0  0  0  0  0  0  0  0  0  0  0
   -4.0604   -7.0661   -2.5052 C   0  0  1  0  0  0  0  0  0  0  0  0
   -3.9214   -8.5437   -2.9517 C   0  0  0  0  0  0  0  0  0  0  0  0
   -4.7152   -9.5639   -2.1631 C   0  0  0  0  0  0  0  0  0  0  0  0
   -6.1079   -9.6460   -2.2992 C   0  0  0  0  0  0  0  0  0  0  0  0
   -6.8432  -10.5849   -1.5713 C   0  0  0  0  0  0  0  0  0  0  0  0
   -6.2032  -11.4944   -0.7241 C   0  0  0  0  0  0  0  0  0  0  0  0
   -6.9337  -12.4373    0.0142 C   0  0  0  0  0  0  0  0  0  0  0  0
   -6.2803  -13.3643    0.8265 C   0  0  0  0  0  0  0  0  0  0  0  0
   -4.8943  -13.3640    0.9001 C   0  0  0  0  0  0  0  0  0  0  0  0
   -4.1529  -12.4217    0.1844 C   0  0  0  0  0  0  0  0  0  0  0  0
   -4.7944  -11.4647   -0.6228 C   0  0  0  0  0  0  0  0  0  0  0  0
   -4.0713  -10.4865   -1.3307 C   0  0  0  0  0  0  0  0  0  0  0  0
   -5.4739   -6.5350   -2.8020 C   0  0  0  0  0  0  0  0  0  0  0  0
   -6.0133   -6.7312   -3.8919 O   0  0  0  0  0  0  0  0  0  0  0  0
   -6.1009   -5.8223   -1.8023 N   0  0  0  0  0  0  0  0  0  0  0  0
   -7.3970   -5.2129   -2.0726 C   0  0  1  0  0  0  0  0  0  0  0  0
   -8.5581   -6.2229   -1.9255 C   0  0  0  0  0  0  0  0  0  0  0  0
   -9.0102   -6.5542   -0.4908 C   0  0  0  0  0  0  0  0  0  0  0  0
   -7.9163   -7.1336    0.4043 C   0  0  0  0  0  0  0  0  0  0  0  0
   -8.4659   -7.4706    1.7088 N   0  0  0  0  0  0  0  0  0  0  0  0
   -8.9406   -8.6926    2.0400 C   0  0  0  0  0  0  0  0  0  0  0  0
   -9.3204   -9.6400    1.2670 N   0  0  0  0  0  0  0  0  0  0  0  0
   -8.9709   -8.8625    3.3759 N   0  0  0  0  0  0  0  0  0  0  0  0
   -7.6622   -3.9669   -1.2097 C   0  0  0  0  0  0  0  0  0  0  0  0
   -7.1608   -3.8233   -0.0980 O   0  0  0  0  0  0  0  0  0  0  0  0
   -8.5862   -3.1001   -1.7726 N   0  0  0  0  0  0  0  0  0  0  0  0
   -8.9378   -1.8260   -1.1439 C   0  0  1  0  0  0  0  0  0  0  0  0
   -9.5833   -1.9762    0.2458 C   0  0  0  0  0  0  0  0  0  0  0  0
  -11.1125   -1.9061    0.1498 C   0  0  0  0  0  0  0  0  0  0  0  0
  -11.8111   -1.9421    1.5112 C   0  0  0  0  0  0  0  0  0  0  0  0
  -11.6984   -3.2536    2.1168 N   0  0  0  0  0  0  0  0  0  0  0  0
  -12.3429   -3.6027    3.2514 C   0  0  0  0  0  0  0  0  0  0  0  0
  -13.2966   -3.0009    3.8536 N   0  0  0  0  0  0  0  0  0  0  0  0
  -11.8652   -4.7595    3.7502 N   0  0  0  0  0  0  0  0  0  0  0  0
   -7.7606   -0.8231   -1.1894 C   0  0  0  0  0  0  0  0  0  0  0  0
   -6.6768   -1.0811   -1.7074 O   0  0  0  0  0  0  0  0  0  0  0  0
   -8.0715    0.4236   -0.6973 N   0  0  0  0  0  0  0  0  0  0  0  0
   -7.1210    1.5156   -0.6172 C   0  0  1  0  0  0  0  0  0  0  0  0
   -6.7609    2.1091   -1.9922 C   0  0  0  0  0  0  0  0  0  0  0  0
   -7.8326    2.9296   -2.7340 C   0  0  0  0  0  0  0  0  0  0  0  0
   -9.1165    2.1769   -3.1177 C   0  0  0  0  0  0  0  0  0  0  0  0
  -10.0436    2.1309   -1.9940 N   0  0  0  0  0  0  0  0  0  0  0  0
  -10.7170    3.2415   -1.5987 C   0  0  0  0  0  0  0  0  0  0  0  0
  -10.7699    4.3432   -2.2502 N   0  0  0  0  0  0  0  0  0  0  0  0
  -11.3245    3.0337   -0.4118 N   0  0  0  0  0  0  0  0  0  0  0  0
   -7.6885    2.5686    0.3624 C   0  0  0  0  0  0  0  0  0  0  0  0
   -8.8251    2.4892    0.8312 O   0  0  0  0  0  0  0  0  0  0  0  0
   -6.8317    3.6034    0.6535 N   0  0  0  0  0  0  0  0  0  0  0  0
   -7.2439    4.7752    1.4385 C   0  0  1  0  0  0  0  0  0  0  0  0
   -7.3652    4.4523    2.9344 C   0  0  0  0  0  0  0  0  0  0  0  0
   -7.8451    5.5883    3.8665 C   0  0  0  0  0  0  0  0  0  0  0  0
   -9.1454    6.2725    3.4613 C   0  0  0  0  0  0  0  0  0  0  0  0
   -8.9697    7.0935    2.2706 N   0  0  0  0  0  0  0  0  0  0  0  0
  -10.0198    7.7492    1.7253 C   0  0  0  0  0  0  0  0  0  0  0  0
  -11.2333    7.6296    2.1333 N   0  0  0  0  0  0  0  0  0  0  0  0
   -9.6438    8.5812    0.7324 N   0  0  0  0  0  0  0  0  0  0  0  0
   -6.2288    5.9068    1.1492 C   0  0  0  0  0  0  0  0  0  0  0  0
   -5.8645    6.7341    1.9816 O   0  0  0  0  0  0  0  0  0  0  0  0
   -5.8443    6.0010   -0.1806 N   0  0  0  0  0  0  0  0  0  0  0  0
   -5.0775    7.1800   -0.5890 C   0  0  2  0  0  0  0  0  0  0  0  0
   -6.0540    8.3440   -0.8171 C   0  0  0  0  0  0  0  0  0  0  0  0
   -7.2447    8.1565   -1.1042 O   0  0  0  0  0  0  0  0  0  0  0  0
   -5.4914    9.6004   -0.6954 N   0  0  0  0  0  0  0  0  0  0  0  0
   -6.2710   10.8263   -0.9257 C   0  0  1  0  0  0  0  0  0  0  0  0
   -6.3813   11.2386   -2.4041 C   0  0  0  0  0  0  0  0  0  0  0  0
   -7.1806   10.3095   -3.3140 C   0  0  0  0  0  0  0  0  0  0  0  0
   -7.1063   10.6565   -4.8095 C   0  0  0  0  0  0  0  0  0  0  0  0
   -7.5869   12.0541   -5.2021 C   0  0  0  0  0  0  0  0  0  0  0  0
   -6.5848   13.0811   -4.9267 N   0  0  0  0  0  0  0  0  0  0  0  0
   -7.5896   10.8722   -0.1373 C   0  0  0  0  0  0  0  0  0  0  0  0
   -8.6369   11.3921   -0.4810 O   0  0  0  0  0  0  0  0  0  0  0  0
   -7.4820   10.2817    1.0752 O   0  0  0  0  0  0  0  0  0  0  0  0
   -4.2847    6.9339   -1.8819 C   0  0  0  0  0  0  0  0  0  0  0  0
   -3.2984    5.8706   -1.7292 N   0  0  0  0  0  0  0  0  0  0  0  0
   -2.1383    6.0651   -1.0110 C   0  0  0  0  0  0  0  0  0  0  0  0
   -1.7941    7.1566   -0.5703 O   0  0  0  0  0  0  0  0  0  0  0  0
   14.1907    5.4352   -0.8005 H   0  0  0  0  0  0  0  0  0  0  0  0
   13.4172    7.0266   -0.6343 H   0  0  0  0  0  0  0  0  0  0  0  0
   14.5402    6.4450    0.6063 H   0  0  0  0  0  0  0  0  0  0  0  0
   12.9599    4.5957    1.1723 H   0  0  0  0  0  0  0  0  0  0  0  0
   12.3014    6.2081    1.4704 H   0  0  0  0  0  0  0  0  0  0  0  0
   11.1258    6.1132   -0.7374 H   0  0  0  0  0  0  0  0  0  0  0  0
   10.8066    3.8094   -1.8052 H   0  0  0  0  0  0  0  0  0  0  0  0
   12.1732    3.2533   -0.8215 H   0  0  0  0  0  0  0  0  0  0  0  0
   12.4021    4.5327   -2.0057 H   0  0  0  0  0  0  0  0  0  0  0  0
   10.0841    5.4571    1.5374 H   0  0  0  0  0  0  0  0  0  0  0  0
    8.7141    4.4587   -0.8688 H   0  0  0  0  0  0  0  0  0  0  0  0
    6.8564    5.3891   -1.4186 H   0  0  0  0  0  0  0  0  0  0  0  0
    6.8666    7.7732   -0.9256 H   0  0  0  0  0  0  0  0  0  0  0  0
    5.2920    7.1701   -1.3782 H   0  0  0  0  0  0  0  0  0  0  0  0
    7.2681    8.7407    1.2839 H   0  0  0  0  0  0  0  0  0  0  0  0
    6.2432    9.8467    3.2512 H   0  0  0  0  0  0  0  0  0  0  0  0
    2.4430    8.1253    2.2791 H   0  0  0  0  0  0  0  0  0  0  0  0
    3.4276    7.0209    0.2854 H   0  0  0  0  0  0  0  0  0  0  0  0
    4.9418    4.9932    0.8309 H   0  0  0  0  0  0  0  0  0  0  0  0
    4.0392    1.9751   -0.8287 H   0  0  0  0  0  0  0  0  0  0  0  0
    5.7856    1.1900    0.8393 H   0  0  0  0  0  0  0  0  0  0  0  0
    4.1307    0.8135    1.2449 H   0  0  0  0  0  0  0  0  0  0  0  0
    6.9734    3.1041    2.0695 H   0  0  0  0  0  0  0  0  0  0  0  0
    7.2183    4.2211    4.2471 H   0  0  0  0  0  0  0  0  0  0  0  0
    5.4430    4.0061    5.9711 H   0  0  0  0  0  0  0  0  0  0  0  0
    3.4096    2.6696    5.4954 H   0  0  0  0  0  0  0  0  0  0  0  0
    3.1292    1.5697    3.3079 H   0  0  0  0  0  0  0  0  0  0  0  0
    2.5420    2.8417    1.1565 H   0  0  0  0  0  0  0  0  0  0  0  0
    0.5561    5.9597   -0.9027 H   0  0  0  0  0  0  0  0  0  0  0  0
   -2.9810    3.5005   -0.5742 H   0  0  0  0  0  0  0  0  0  0  0  0
    0.9191    1.7661   -0.0587 H   0  0  0  0  0  0  0  0  0  0  0  0
   -0.0263    0.1384   -0.6719 H   0  0  0  0  0  0  0  0  0  0  0  0
   -2.4077   -1.3301    0.2864 H   0  0  0  0  0  0  0  0  0  0  0  0
   -1.6181   -1.6892   -1.2550 H   0  0  0  0  0  0  0  0  0  0  0  0
   -0.0091   -1.7180    1.3669 H   0  0  0  0  0  0  0  0  0  0  0  0
    1.2360   -3.4749    0.0473 H   0  0  0  0  0  0  0  0  0  0  0  0
    2.6598   -3.3864   -1.8694 H   0  0  0  0  0  0  0  0  0  0  0  0
    2.6496   -1.4085   -3.4084 H   0  0  0  0  0  0  0  0  0  0  0  0
    4.3116   -1.9584   -3.0979 H   0  0  0  0  0  0  0  0  0  0  0  0
    3.6934   -0.5165   -2.2856 H   0  0  0  0  0  0  0  0  0  0  0  0
    4.9307   -2.3705   -0.8011 H   0  0  0  0  0  0  0  0  0  0  0  0
    5.1692   -4.7090    1.7250 H   0  0  0  0  0  0  0  0  0  0  0  0
    6.0184   -2.8124    3.1162 H   0  0  0  0  0  0  0  0  0  0  0  0
    5.2193   -1.6451    2.0559 H   0  0  0  0  0  0  0  0  0  0  0  0
    4.2480   -2.7432    3.0407 H   0  0  0  0  0  0  0  0  0  0  0  0
    7.2239   -3.2022    1.0538 H   0  0  0  0  0  0  0  0  0  0  0  0
    8.2945   -5.1702   -1.7097 H   0  0  0  0  0  0  0  0  0  0  0  0
    8.6507   -5.3542    1.3282 H   0  0  0  0  0  0  0  0  0  0  0  0
    8.2464   -6.6503    0.2303 H   0  0  0  0  0  0  0  0  0  0  0  0
   10.4938   -6.2530   -0.9431 H   0  0  0  0  0  0  0  0  0  0  0  0
   10.8658   -5.0827    0.3226 H   0  0  0  0  0  0  0  0  0  0  0  0
   10.5673   -8.1023    0.6081 H   0  0  0  0  0  0  0  0  0  0  0  0
   10.3619   -7.0317    1.9935 H   0  0  0  0  0  0  0  0  0  0  0  0
   12.5668   -7.1828    2.1380 H   0  0  0  0  0  0  0  0  0  0  0  0
   12.1055   -7.7249   -1.1770 H   0  0  0  0  0  0  0  0  0  0  0  0
   14.5788   -6.2502    1.2228 H   0  0  0  0  0  0  0  0  0  0  0  0
   15.1386   -7.3045    0.0716 H   0  0  0  0  0  0  0  0  0  0  0  0
    9.5581   -3.3913   -1.7296 H   0  0  0  0  0  0  0  0  0  0  0  0
   10.1233   -0.9759   -0.9627 H   0  0  0  0  0  0  0  0  0  0  0  0
   12.6616   -1.4021   -0.3302 H   0  0  0  0  0  0  0  0  0  0  0  0
   12.1214   -2.8907    0.4037 H   0  0  0  0  0  0  0  0  0  0  0  0
   12.9415   -4.6464   -0.9051 H   0  0  0  0  0  0  0  0  0  0  0  0
   13.2293   -5.7760   -3.0412 H   0  0  0  0  0  0  0  0  0  0  0  0
   13.0143   -5.7948   -5.5152 H   0  0  0  0  0  0  0  0  0  0  0  0
   12.3991   -4.6460   -7.6071 H   0  0  0  0  0  0  0  0  0  0  0  0
   11.4783   -2.3448   -7.5425 H   0  0  0  0  0  0  0  0  0  0  0  0
   11.1702   -1.1906   -5.3890 H   0  0  0  0  0  0  0  0  0  0  0  0
   11.3701   -1.1746   -2.9180 H   0  0  0  0  0  0  0  0  0  0  0  0
    9.7665   -0.8971    1.7448 H   0  0  0  0  0  0  0  0  0  0  0  0
    9.7466    1.1874    2.6477 H   0  0  0  0  0  0  0  0  0  0  0  0
   12.7726    0.8035    2.9567 H   0  0  0  0  0  0  0  0  0  0  0  0
   11.4941   -0.1632    3.6719 H   0  0  0  0  0  0  0  0  0  0  0  0
   12.5928    1.3660    5.3079 H   0  0  0  0  0  0  0  0  0  0  0  0
   10.8556    1.6772    5.1661 H   0  0  0  0  0  0  0  0  0  0  0  0
   12.1419    3.8025    5.1263 H   0  0  0  0  0  0  0  0  0  0  0  0
   13.0932    3.2238    3.7515 H   0  0  0  0  0  0  0  0  0  0  0  0
   10.0634    3.7198    3.7749 H   0  0  0  0  0  0  0  0  0  0  0  0
   11.2934    4.7025    2.9988 H   0  0  0  0  0  0  0  0  0  0  0  0
   -0.5184   -4.5122   -0.5556 H   0  0  0  0  0  0  0  0  0  0  0  0
   -1.1680   -6.6739    0.2509 H   0  0  0  0  0  0  0  0  0  0  0  0
   -2.0218   -5.7193    2.5621 H   0  0  0  0  0  0  0  0  0  0  0  0
   -3.5002   -5.3037    1.6957 H   0  0  0  0  0  0  0  0  0  0  0  0
   -1.1759   -8.3022    2.0785 H   0  0  0  0  0  0  0  0  0  0  0  0
   -2.0273  -10.5560    2.6146 H   0  0  0  0  0  0  0  0  0  0  0  0
   -4.4655  -10.9396    2.8717 H   0  0  0  0  0  0  0  0  0  0  0  0
   -6.0547   -9.0817    2.5730 H   0  0  0  0  0  0  0  0  0  0  0  0
   -5.2270   -6.8088    2.0492 H   0  0  0  0  0  0  0  0  0  0  0  0
   -3.6792   -7.5742   -0.4647 H   0  0  0  0  0  0  0  0  0  0  0  0
   -3.4196   -6.4934   -3.1891 H   0  0  0  0  0  0  0  0  0  0  0  0
   -2.8565   -8.8173   -2.9142 H   0  0  0  0  0  0  0  0  0  0  0  0
   -4.2087   -8.6426   -4.0079 H   0  0  0  0  0  0  0  0  0  0  0  0
   -6.6429   -8.9958   -2.9843 H   0  0  0  0  0  0  0  0  0  0  0  0
   -7.9256  -10.6111   -1.6883 H   0  0  0  0  0  0  0  0  0  0  0  0
   -8.0191  -12.4480   -0.0327 H   0  0  0  0  0  0  0  0  0  0  0  0
   -6.8623  -14.0862    1.3914 H   0  0  0  0  0  0  0  0  0  0  0  0
   -4.3845  -14.0934    1.5291 H   0  0  0  0  0  0  0  0  0  0  0  0
   -3.0695  -12.4315    0.2676 H   0  0  0  0  0  0  0  0  0  0  0  0
   -2.9865  -10.4597   -1.2362 H   0  0  0  0  0  0  0  0  0  0  0  0
   -5.5250   -5.4117   -1.0756 H   0  0  0  0  0  0  0  0  0  0  0  0
   -7.3754   -4.8751   -3.1173 H   0  0  0  0  0  0  0  0  0  0  0  0
   -9.4351   -5.8114   -2.4485 H   0  0  0  0  0  0  0  0  0  0  0  0
   -8.3113   -7.1582   -2.4412 H   0  0  0  0  0  0  0  0  0  0  0  0
   -9.4391   -5.6613   -0.0220 H   0  0  0  0  0  0  0  0  0  0  0  0
   -9.8379   -7.2713   -0.5655 H   0  0  0  0  0  0  0  0  0  0  0  0
   -7.4487   -8.0061   -0.0630 H   0  0  0  0  0  0  0  0  0  0  0  0
   -7.1280   -6.3932    0.5596 H   0  0  0  0  0  0  0  0  0  0  0  0
   -7.9184   -7.0649    2.4640 H   0  0  0  0  0  0  0  0  0  0  0  0
   -9.2237   -9.3312    0.2994 H   0  0  0  0  0  0  0  0  0  0  0  0
   -9.4392   -8.1084    3.8635 H   0  0  0  0  0  0  0  0  0  0  0  0
   -9.4150   -9.7492    3.5894 H   0  0  0  0  0  0  0  0  0  0  0  0
   -8.6021   -3.0988   -2.7846 H   0  0  0  0  0  0  0  0  0  0  0  0
   -9.6762   -1.3951   -1.8329 H   0  0  0  0  0  0  0  0  0  0  0  0
   -9.3012   -2.9263    0.7064 H   0  0  0  0  0  0  0  0  0  0  0  0
   -9.2385   -1.1912    0.9283 H   0  0  0  0  0  0  0  0  0  0  0  0
  -11.4802   -2.7257   -0.4835 H   0  0  0  0  0  0  0  0  0  0  0  0
  -11.3917   -0.9662   -0.3439 H   0  0  0  0  0  0  0  0  0  0  0  0
  -11.4000   -1.1740    2.1750 H   0  0  0  0  0  0  0  0  0  0  0  0
  -12.8707   -1.7074    1.3452 H   0  0  0  0  0  0  0  0  0  0  0  0
  -10.7470   -3.6067    2.1291 H   0  0  0  0  0  0  0  0  0  0  0  0
  -13.5427   -2.1495    3.3492 H   0  0  0  0  0  0  0  0  0  0  0  0
  -12.4649   -5.0510    4.5149 H   0  0  0  0  0  0  0  0  0  0  0  0
  -11.8345   -5.4797    3.0362 H   0  0  0  0  0  0  0  0  0  0  0  0
   -9.0312    0.6789   -0.4753 H   0  0  0  0  0  0  0  0  0  0  0  0
   -6.2095    1.1012   -0.1694 H   0  0  0  0  0  0  0  0  0  0  0  0
   -5.8947    2.7707   -1.8620 H   0  0  0  0  0  0  0  0  0  0  0  0
   -6.4251    1.3086   -2.6625 H   0  0  0  0  0  0  0  0  0  0  0  0
   -8.0605    3.8403   -2.1671 H   0  0  0  0  0  0  0  0  0  0  0  0
   -7.3724    3.2667   -3.6718 H   0  0  0  0  0  0  0  0  0  0  0  0
   -9.5987    2.6589   -3.9756 H   0  0  0  0  0  0  0  0  0  0  0  0
   -8.8730    1.1551   -3.4236 H   0  0  0  0  0  0  0  0  0  0  0  0
  -10.6935    1.3543   -2.0661 H   0  0  0  0  0  0  0  0  0  0  0  0
  -11.3587    5.0081   -1.7447 H   0  0  0  0  0  0  0  0  0  0  0  0
  -11.6840    3.8791    0.0178 H   0  0  0  0  0  0  0  0  0  0  0  0
  -10.6464    2.6295    0.2420 H   0  0  0  0  0  0  0  0  0  0  0  0
   -5.8442    3.4981    0.4468 H   0  0  0  0  0  0  0  0  0  0  0  0
   -8.2173    5.0758    1.0335 H   0  0  0  0  0  0  0  0  0  0  0  0
   -8.0518    3.6097    3.0681 H   0  0  0  0  0  0  0  0  0  0  0  0
   -6.3905    4.1096    3.3047 H   0  0  0  0  0  0  0  0  0  0  0  0
   -7.0537    6.3360    3.9926 H   0  0  0  0  0  0  0  0  0  0  0  0
   -7.9870    5.1464    4.8609 H   0  0  0  0  0  0  0  0  0  0  0  0
   -9.4760    6.9125    4.2858 H   0  0  0  0  0  0  0  0  0  0  0  0
   -9.9208    5.5188    3.2884 H   0  0  0  0  0  0  0  0  0  0  0  0
   -8.1022    7.6336    2.2570 H   0  0  0  0  0  0  0  0  0  0  0  0
  -11.8329    8.2486    1.5891 H   0  0  0  0  0  0  0  0  0  0  0  0
   -8.9246    8.1826    0.1163 H   0  0  0  0  0  0  0  0  0  0  0  0
  -10.4030    8.9383    0.1585 H   0  0  0  0  0  0  0  0  0  0  0  0
   -6.5437    5.6735   -0.8362 H   0  0  0  0  0  0  0  0  0  0  0  0
   -4.3951    7.4517    0.2244 H   0  0  0  0  0  0  0  0  0  0  0  0
   -4.7140    9.6839   -0.0530 H   0  0  0  0  0  0  0  0  0  0  0  0
   -5.6599   11.6095   -0.4516 H   0  0  0  0  0  0  0  0  0  0  0  0
   -5.3667   11.3430   -2.8081 H   0  0  0  0  0  0  0  0  0  0  0  0
   -6.8418   12.2337   -2.4278 H   0  0  0  0  0  0  0  0  0  0  0  0
   -8.2308   10.2901   -3.0006 H   0  0  0  0  0  0  0  0  0  0  0  0
   -6.7968    9.2879   -3.2286 H   0  0  0  0  0  0  0  0  0  0  0  0
   -6.0852   10.4936   -5.1744 H   0  0  0  0  0  0  0  0  0  0  0  0
   -7.7291    9.9253   -5.3448 H   0  0  0  0  0  0  0  0  0  0  0  0
   -8.5209   12.2933   -4.6831 H   0  0  0  0  0  0  0  0  0  0  0  0
   -7.7984   12.0668   -6.2788 H   0  0  0  0  0  0  0  0  0  0  0  0
   -5.7367   12.8757   -5.4498 H   0  0  0  0  0  0  0  0  0  0  0  0
   -6.9246   13.9783   -5.2716 H   0  0  0  0  0  0  0  0  0  0  0  0
   -8.4151   10.1395    1.3605 H   0  0  0  0  0  0  0  0  0  0  0  0
   -4.9535    6.6353   -2.6953 H   0  0  0  0  0  0  0  0  0  0  0  0
   -3.7624    7.8441   -2.1967 H   0  0  0  0  0  0  0  0  0  0  0  0
   -3.5028    4.9680   -2.1413 H   0  0  0  0  0  0  0  0  0  0  0  0
  1  2  1  0
  2  3  1  0
  3  4  1  0
  3  5  1  0
  5  6  1  0
  6  7  1  0
  7  8  2  0
  7  9  1  0
  9 10  1  0
 10 11  1  0
 11 12  1  0
 12 13  2  0
 13 14  1  0
 14 15  1  0
 14 16  2  0
 16 17  1  0
  9 18  1  0
 18 19  1  0
 19 20  2  0
 19 21  1  0
 21 22  1  0
 22 23  1  0
 23 24  2  0
 24 25  1  0
 25 26  2  0
 26 27  1  0
 27 28  2  0
 21 29  1  0
 29 30  1  0
 30 31  2  0
 30 32  1  0
 32 33  1  0
 33 34  2  0
 34 35  1  0
 35 36  2  0
 36 37  1  0
 36 38  1  0
 38 39  2  0
 38 40  1  0
 40 41  1  0
 41 42  1  0
 42 43  1  0
 43 44  1  0
 44 45  2  0
 44 46  1  0
 46 47  1  0
 46 48  1  0
 48 49  1  0
 49 50  2  0
 49 51  1  0
 51 52  1  0
 51 53  1  0
 53 54  1  0
 54 55  2  0
 54 56  1  0
 56 57  1  0
 57 58  1  0
 58 59  1  0
 59 60  1  0
 60 61  1  0
 61 62  2  3
 61 63  1  0
 56 64  1  0
 64 65  1  0
 65 66  2  0
 65 67  1  0
 67 68  1  0
 68 69  1  0
 69 70  1  0
 70 71  2  0
 71 72  1  0
 72 73  2  0
 73 74  1  0
 74 75  2  0
 75 76  1  0
 76 77  2  0
 77 78  1  0
 67 79  1  0
 79 80  1  0
 80 81  2  0
 80 82  1  0
 82 83  1  0
 83 84  1  0
 84 85  1  0
 85 86  1  0
 86 87  1  0
 87 88  1  0
 88 89  2  0
 42 90  1  0
 90 91  2  0
 90 92  1  0
 92 93  1  0
 93 94  1  0
 94 95  1  0
 95 96  2  0
 96 97  1  0
 97 98  2  0
 98 99  1  0
 99100  2  0
 93101  1  0
101102  2  0
101103  1  0
103104  1  0
104105  1  0
105106  1  0
106107  1  0
107108  2  0
108109  1  0
109110  2  0
110111  1  0
111112  2  0
112113  1  0
113114  2  0
114115  1  0
104116  1  0
116117  2  0
116118  1  0
118119  1  0
119120  1  0
120121  1  0
121122  1  0
122123  1  0
123124  1  0
124125  2  3
124126  1  0
119127  1  0
127128  2  0
127129  1  0
129130  1  0
130131  1  0
131132  1  0
132133  1  0
133134  1  0
134135  1  0
135136  2  3
135137  1  0
130138  1  0
138139  2  0
138140  1  0
140141  1  0
141142  1  0
142143  1  0
143144  1  0
144145  1  0
145146  1  0
146147  2  3
146148  1  0
141149  1  0
149150  2  0
149151  1  0
151152  1  0
152153  1  0
153154  1  0
154155  1  0
155156  1  0
156157  1  0
157158  2  3
157159  1  0
152160  1  0
160161  2  0
160162  1  0
162163  1  0
163164  1  0
164165  2  0
164166  1  0
166167  1  0
167168  1  0
168169  1  0
169170  1  0
170171  1  0
171172  1  0
167173  1  0
173174  2  0
173175  1  0
163176  1  0
176177  1  0
177178  1  0
178179  2  0
 88  5  1  0
100 95  1  0
115106  2  0
 17 11  2  0
 28 23  1  0
 37 32  2  0
 78 69  2  0
 87 82  1  0
114109  1  0
178 34  1  0
 77 72  1  0
  1180  1  0
  1181  1  0
  1182  1  0
  2183  1  0
  2184  1  0
  3185  1  6
  4186  1  0
  4187  1  0
  4188  1  0
  5189  1  1
  6190  1  0
  9191  1  6
 10192  1  0
 10193  1  0
 12194  1  0
 13195  1  0
 16196  1  0
 17197  1  0
 18198  1  0
 21199  1  6
 22200  1  0
 22201  1  0
 24202  1  0
 25203  1  0
 26204  1  0
 27205  1  0
 28206  1  0
 29207  1  0
 33208  1  0
 35209  1  0
 37210  1  0
 40211  1  0
 41212  1  0
 41213  1  0
 42214  1  1
 43215  1  0
 46216  1  6
 47217  1  0
 47218  1  0
 47219  1  0
 48220  1  0
 51221  1  1
 52222  1  0
 52223  1  0
 52224  1  0
 53225  1  0
 56226  1  6
 57227  1  0
 57228  1  0
 58229  1  0
 58230  1  0
 59231  1  0
 59232  1  0
 60233  1  0
 62234  1  0
 63235  1  0
 63236  1  0
 64237  1  0
 67238  1  6
 68239  1  0
 68240  1  0
 70241  1  0
 71242  1  0
 73243  1  0
 74244  1  0
 75245  1  0
 76246  1  0
 78247  1  0
 79248  1  0
 82249  1  1
 83250  1  0
 83251  1  0
 84252  1  0
 84253  1  0
 85254  1  0
 85255  1  0
 86256  1  0
 86257  1  0
 92258  1  0
 93259  1  6
 94260  1  0
 94261  1  0
 96262  1  0
 97263  1  0
 98264  1  0
 99265  1  0
100266  1  0
103267  1  0
104268  1  6
105269  1  0
105270  1  0
107271  1  0
108272  1  0
110273  1  0
111274  1  0
112275  1  0
113276  1  0
115277  1  0
118278  1  0
119279  1  6
120280  1  0
120281  1  0
121282  1  0
121283  1  0
122284  1  0
122285  1  0
123286  1  0
125287  1  0
126288  1  0
126289  1  0
129290  1  0
130291  1  6
131292  1  0
131293  1  0
132294  1  0
132295  1  0
133296  1  0
133297  1  0
134298  1  0
136299  1  0
137300  1  0
137301  1  0
140302  1  0
141303  1  1
142304  1  0
142305  1  0
143306  1  0
143307  1  0
144308  1  0
144309  1  0
145310  1  0
147311  1  0
148312  1  0
148313  1  0
151314  1  0
152315  1  6
153316  1  0
153317  1  0
154318  1  0
154319  1  0
155320  1  0
155321  1  0
156322  1  0
158323  1  0
159324  1  0
159325  1  0
162326  1  0
163327  1  1
166328  1  0
167329  1  1
168330  1  0
168331  1  0
169332  1  0
169333  1  0
170334  1  0
170335  1  0
171336  1  0
171337  1  0
172338  1  0
172339  1  0
175340  1  0
176341  1  0
176342  1  0
177343  1  0
M  END
$$$$
