
     RDKit          3D

 44 47  0  0  0  0  0  0  0  0999 V2000
    0.3553   -2.1383   -2.5032 O   0  0  0  0  0  0  0  0  0  0  0  0
    0.6748   -1.8366   -1.3588 C   0  0  0  0  0  0  0  0  0  0  0  0
    0.1474   -2.4300   -0.2456 N   0  0  0  0  0  0  0  0  0  0  0  0
   -0.9530   -3.4014   -0.2934 C   0  0  2  0  0  0  0  0  0  0  0  0
   -2.2382   -2.8460   -0.9277 C   0  0  0  0  0  0  0  0  0  0  0  0
   -2.5678   -1.4837   -0.4115 C   0  0  0  0  0  0  0  0  0  0  0  0
   -2.9971   -1.1759    0.7952 N   0  0  0  0  0  0  0  0  0  0  0  0
   -3.0266    0.1968    0.8363 C   0  0  0  0  0  0  0  0  0  0  0  0
   -3.3754    1.0523    1.8878 C   0  0  0  0  0  0  0  0  0  0  0  0
   -3.2694    2.4252    1.6718 C   0  0  0  0  0  0  0  0  0  0  0  0
   -3.5824    3.2672    2.6668 F   0  0  0  0  0  0  0  0  0  0  0  0
   -2.8342    2.9509    0.4564 C   0  0  0  0  0  0  0  0  0  0  0  0
   -2.4929    2.1116   -0.6096 C   0  0  0  0  0  0  0  0  0  0  0  0
   -2.6088    0.7385   -0.3767 C   0  0  0  0  0  0  0  0  0  0  0  0
   -2.3597   -0.3536   -1.1676 N   0  0  0  0  0  0  0  0  0  0  0  0
   -1.2637   -3.9236    1.1119 C   0  0  0  0  0  0  0  0  0  0  0  0
   -2.0871   -4.7782    1.4010 O   0  0  0  0  0  0  0  0  0  0  0  0
   -0.5075   -3.3530    2.0821 O   0  0  0  0  0  0  0  0  0  0  0  0
    1.6491   -0.7468   -1.1115 C   0  0  0  0  0  0  0  0  0  0  0  0
    2.7362   -0.6083   -1.9771 C   0  0  0  0  0  0  0  0  0  0  0  0
    3.6581    0.4212   -1.7755 C   0  0  0  0  0  0  0  0  0  0  0  0
    3.4933    1.3353   -0.7217 C   0  0  0  0  0  0  0  0  0  0  0  0
    4.4095    2.3787   -0.5097 C   0  0  0  0  0  0  0  0  0  0  0  0
    4.2239    3.2900    0.5308 C   0  0  0  0  0  0  0  0  0  0  0  0
    3.1199    3.1722    1.3704 C   0  0  0  0  0  0  0  0  0  0  0  0
    2.2008    2.1389    1.1767 C   0  0  0  0  0  0  0  0  0  0  0  0
    2.3761    1.2106    0.1388 C   0  0  0  0  0  0  0  0  0  0  0  0
    1.4608    0.1654   -0.0646 C   0  0  0  0  0  0  0  0  0  0  0  0
    0.4435   -2.1572    0.6877 H   0  0  0  0  0  0  0  0  0  0  0  0
   -0.5919   -4.2576   -0.8754 H   0  0  0  0  0  0  0  0  0  0  0  0
   -3.0872   -3.5142   -0.7388 H   0  0  0  0  0  0  0  0  0  0  0  0
   -2.1211   -2.8021   -2.0174 H   0  0  0  0  0  0  0  0  0  0  0  0
   -3.7062    0.6605    2.8417 H   0  0  0  0  0  0  0  0  0  0  0  0
   -2.7607    4.0291    0.3440 H   0  0  0  0  0  0  0  0  0  0  0  0
   -2.1539    2.5101   -1.5590 H   0  0  0  0  0  0  0  0  0  0  0  0
   -1.9887   -0.3383   -2.1085 H   0  0  0  0  0  0  0  0  0  0  0  0
   -0.8712   -3.7414    2.9090 H   0  0  0  0  0  0  0  0  0  0  0  0
    2.8701   -1.3012   -2.8059 H   0  0  0  0  0  0  0  0  0  0  0  0
    4.5054    0.5102   -2.4553 H   0  0  0  0  0  0  0  0  0  0  0  0
    5.2774    2.4932   -1.1598 H   0  0  0  0  0  0  0  0  0  0  0  0
    4.9408    4.0944    0.6821 H   0  0  0  0  0  0  0  0  0  0  0  0
    2.9729    3.8843    2.1783 H   0  0  0  0  0  0  0  0  0  0  0  0
    1.3435    2.0648    1.8448 H   0  0  0  0  0  0  0  0  0  0  0  0
    0.5860    0.0860    0.5794 H   0  0  0  0  0  0  0  0  0  0  0  0
  1  2  2  0
  2  3  1  0
  3  4  1  0
  4  5  1  0
  5  6  1  0
  6  7  2  0
  7  8  1  0
  8  9  2  0
  9 10  1  0
 10 11  1  0
 10 12  2  0
 12 13  1  0
 13 14  2  0
 14 15  1  0
  4 16  1  0
 16 17  2  0
 16 18  1  0
  2 19  1  0
 19 20  1  0
 20 21  2  0
 21 22  1  0
 22 23  2  0
 23 24  1  0
 24 25  2  0
 25 26  1  0
 26 27  2  0
 27 28  1  0
 15  6  1  0
 28 19  2  0
 14  8  1  0
 27 22  1  0
  3 29  1  0
  4 30  1  6
  5 31  1  0
  5 32  1  0
  9 33  1  0
 12 34  1  0
 13 35  1  0
 15 36  1  0
 18 37  1  0
 20 38  1  0
 21 39  1  0
 23 40  1  0
 24 41  1  0
 25 42  1  0
 26 43  1  0
 28 44  1  0
M  END
$$$$
