
     RDKit          3D

148151  0  0  0  0  0  0  0  0999 V2000
    0.7383   -6.8323   -0.6850 C   0  0  0  0  0  0  0  0  0  0  0  0
    1.6785   -5.6375   -0.6277 C   0  0  1  0  0  0  0  0  0  0  0  0
    2.4528   -5.6476   -1.8291 O   0  0  0  0  0  0  0  0  0  0  0  0
    4.0434   -5.7169   -1.7066 P   0  0  0  0  0  0  0  0  0  0  0  0
    4.6084   -6.7670   -0.8202 O   0  0  0  0  0  0  0  0  0  0  0  0
    4.5286   -5.7987   -3.2216 O   0  0  0  0  0  0  0  0  0  0  0  0
    4.4721   -4.2225   -1.3188 O   0  0  0  0  0  0  0  0  0  0  0  0
    0.9831   -4.2731   -0.4433 C   0  0  1  0  0  0  0  0  0  0  0  0
    1.9985   -3.2113   -0.3883 N   0  0  0  0  0  0  0  0  0  0  0  0
    1.6598   -1.9476    0.0465 C   0  0  0  0  0  0  0  0  0  0  0  0
    0.5979   -1.7145    0.6210 O   0  0  0  0  0  0  0  0  0  0  0  0
    2.6798   -0.8517   -0.3334 C   0  0  1  0  0  0  0  0  0  0  0  0
    2.4911   -0.4938   -1.8156 C   0  0  0  0  0  0  0  0  0  0  0  0
    3.5230    0.4863   -2.3909 C   0  0  0  0  0  0  0  0  0  0  0  0
    4.8404   -0.1723   -2.8056 C   0  0  0  0  0  0  0  0  0  0  0  0
    5.6288   -0.5529   -1.6594 N   0  0  0  0  0  0  0  0  0  0  0  0
    6.3411    0.2659   -0.8637 C   0  0  0  0  0  0  0  0  0  0  0  0
    6.7340    1.4620   -1.1085 N   0  0  0  0  0  0  0  0  0  0  0  0
    6.6299   -0.3081    0.3202 N   0  0  0  0  0  0  0  0  0  0  0  0
    2.4520    0.3116    0.5172 N   0  0  0  0  0  0  0  0  0  0  0  0
    3.2267    0.5779    1.6269 C   0  0  0  0  0  0  0  0  0  0  0  0
    4.2070   -0.1015    1.9283 O   0  0  0  0  0  0  0  0  0  0  0  0
    2.6841    1.7332    2.5136 C   0  0  1  0  0  0  0  0  0  0  0  0
    3.6609    2.2141    3.6020 C   0  0  0  0  0  0  0  0  0  0  0  0
    4.8048    3.1535    3.1808 C   0  0  0  0  0  0  0  0  0  0  0  0
    5.8473    2.5665    2.2313 C   0  0  0  0  0  0  0  0  0  0  0  0
    6.4812    1.3888    2.7953 N   0  0  0  0  0  0  0  0  0  0  0  0
    7.3952    1.3955    3.7866 C   0  0  0  0  0  0  0  0  0  0  0  0
    8.0859    2.3787    4.2321 N   0  0  0  0  0  0  0  0  0  0  0  0
    7.5687    0.1714    4.3194 N   0  0  0  0  0  0  0  0  0  0  0  0
    2.1585    2.8522    1.7229 N   0  0  0  0  0  0  0  0  0  0  0  0
    0.8508    2.8777    1.2969 C   0  0  0  0  0  0  0  0  0  0  0  0
    0.0421    1.9984    1.5969 O   0  0  0  0  0  0  0  0  0  0  0  0
    0.4494    4.0878    0.4288 C   0  0  2  0  0  0  0  0  0  0  0  0
    0.4472    5.3906    1.2303 C   0  0  0  0  0  0  0  0  0  0  0  0
   -0.5374    5.3860    2.4040 C   0  0  0  0  0  0  0  0  0  0  0  0
   -0.4398    6.6510    3.2261 C   0  0  0  0  0  0  0  0  0  0  0  0
   -1.2870    6.6879    4.2967 N   0  0  0  0  0  0  0  0  0  0  0  0
    0.3155    7.5833    2.9857 O   0  0  0  0  0  0  0  0  0  0  0  0
   -0.8606    3.7925   -0.1380 N   0  0  0  0  0  0  0  0  0  0  0  0
   -1.1001    3.9171   -1.4910 C   0  0  0  0  0  0  0  0  0  0  0  0
   -0.3938    4.5972   -2.2292 O   0  0  0  0  0  0  0  0  0  0  0  0
   -2.4342    3.2830   -1.9565 C   0  0  2  0  0  0  0  0  0  0  0  0
   -3.5310    4.3553   -1.8484 C   0  0  0  0  0  0  0  0  0  0  0  0
   -4.8444    3.9356   -2.5255 C   0  0  0  0  0  0  0  0  0  0  0  0
   -5.9446    4.9911   -2.3708 C   0  0  0  0  0  0  0  0  0  0  0  0
   -5.6419    6.1923   -3.1346 N   0  0  0  0  0  0  0  0  0  0  0  0
   -5.9235    6.2649   -4.4567 C   0  0  0  0  0  0  0  0  0  0  0  0
   -6.3260    5.2884   -5.1826 N   0  0  0  0  0  0  0  0  0  0  0  0
   -5.7238    7.5091   -4.9294 N   0  0  0  0  0  0  0  0  0  0  0  0
   -2.7784    2.1046   -1.1371 N   0  0  0  0  0  0  0  0  0  0  0  0
   -2.0374    0.9354   -1.2706 C   0  0  0  0  0  0  0  0  0  0  0  0
   -0.9273    0.9147   -1.7929 O   0  0  0  0  0  0  0  0  0  0  0  0
   -2.6963   -0.2952   -0.6169 C   0  0  2  0  0  0  0  0  0  0  0  0
   -2.5011   -0.2369    0.9076 C   0  0  0  0  0  0  0  0  0  0  0  0
   -3.0824   -1.4171    1.6585 C   0  0  0  0  0  0  0  0  0  0  0  0
   -2.2885   -2.1138    2.5775 C   0  0  0  0  0  0  0  0  0  0  0  0
   -2.7982   -3.2140    3.2691 C   0  0  0  0  0  0  0  0  0  0  0  0
   -4.1168   -3.6435    3.0619 C   0  0  0  0  0  0  0  0  0  0  0  0
   -4.6438   -4.7515    3.7452 C   0  0  0  0  0  0  0  0  0  0  0  0
   -5.9593   -5.1657    3.5258 C   0  0  0  0  0  0  0  0  0  0  0  0
   -6.7608   -4.4798    2.6187 C   0  0  0  0  0  0  0  0  0  0  0  0
   -6.2531   -3.3748    1.9340 C   0  0  0  0  0  0  0  0  0  0  0  0
   -4.9326   -2.9435    2.1456 C   0  0  0  0  0  0  0  0  0  0  0  0
   -4.4089   -1.8324    1.4644 C   0  0  0  0  0  0  0  0  0  0  0  0
   -2.1615   -1.5248   -1.1876 N   0  0  0  0  0  0  0  0  0  0  0  0
   -2.8600   -2.2568   -2.1211 C   0  0  0  0  0  0  0  0  0  0  0  0
   -3.9191   -1.8468   -2.5966 O   0  0  0  0  0  0  0  0  0  0  0  0
   -2.1985   -3.5900   -2.5774 C   0  0  2  0  0  0  0  0  0  0  0  0
   -3.2713   -4.6037   -3.0060 C   0  0  0  0  0  0  0  0  0  0  0  0
   -4.0433   -5.1479   -1.8038 C   0  0  0  0  0  0  0  0  0  0  0  0
   -3.0863   -5.7357   -0.7747 C   0  0  0  0  0  0  0  0  0  0  0  0
   -2.0039   -4.7359   -0.3760 C   0  0  0  0  0  0  0  0  0  0  0  0
   -1.3119   -4.1867   -1.5478 N   0  0  0  0  0  0  0  0  0  0  0  0
    0.0470   -3.9046   -1.6246 C   0  0  0  0  0  0  0  0  0  0  0  0
    0.5137   -3.3300   -2.6173 O   0  0  0  0  0  0  0  0  0  0  0  0
    0.0674   -6.7779   -1.5481 H   0  0  0  0  0  0  0  0  0  0  0  0
    0.1468   -6.9215    0.2306 H   0  0  0  0  0  0  0  0  0  0  0  0
    1.3141   -7.7583   -0.8048 H   0  0  0  0  0  0  0  0  0  0  0  0
    2.3500   -5.7863    0.2282 H   0  0  0  0  0  0  0  0  0  0  0  0
    4.3924   -6.6891   -3.5947 H   0  0  0  0  0  0  0  0  0  0  0  0
    5.4406   -4.2025   -1.1809 H   0  0  0  0  0  0  0  0  0  0  0  0
    0.4424   -4.2363    0.5049 H   0  0  0  0  0  0  0  0  0  0  0  0
    2.7348   -3.2807   -1.0893 H   0  0  0  0  0  0  0  0  0  0  0  0
    3.6738   -1.2592   -0.1407 H   0  0  0  0  0  0  0  0  0  0  0  0
    1.4986   -0.0419   -1.9371 H   0  0  0  0  0  0  0  0  0  0  0  0
    2.4806   -1.4001   -2.4319 H   0  0  0  0  0  0  0  0  0  0  0  0
    3.6986    1.3179   -1.6984 H   0  0  0  0  0  0  0  0  0  0  0  0
    3.0838    0.9250   -3.2960 H   0  0  0  0  0  0  0  0  0  0  0  0
    5.4097    0.5124   -3.4431 H   0  0  0  0  0  0  0  0  0  0  0  0
    4.6402   -1.0625   -3.4147 H   0  0  0  0  0  0  0  0  0  0  0  0
    5.5074   -1.4949   -1.3163 H   0  0  0  0  0  0  0  0  0  0  0  0
    6.4587    1.7136   -2.0588 H   0  0  0  0  0  0  0  0  0  0  0  0
    5.7786   -0.5535    0.8280 H   0  0  0  0  0  0  0  0  0  0  0  0
    7.1112    0.3844    0.8981 H   0  0  0  0  0  0  0  0  0  0  0  0
    1.4799    0.6114    0.5740 H   0  0  0  0  0  0  0  0  0  0  0  0
    1.8384    1.2803    3.0487 H   0  0  0  0  0  0  0  0  0  0  0  0
    4.0723    1.3503    4.1374 H   0  0  0  0  0  0  0  0  0  0  0  0
    3.0693    2.7661    4.3464 H   0  0  0  0  0  0  0  0  0  0  0  0
    5.3115    3.4824    4.0959 H   0  0  0  0  0  0  0  0  0  0  0  0
    4.3882    4.0616    2.7299 H   0  0  0  0  0  0  0  0  0  0  0  0
    5.3739    2.3034    1.2811 H   0  0  0  0  0  0  0  0  0  0  0  0
    6.6014    3.3249    1.9902 H   0  0  0  0  0  0  0  0  0  0  0  0
    5.8383    0.5963    2.8531 H   0  0  0  0  0  0  0  0  0  0  0  0
    7.8551    3.2225    3.7081 H   0  0  0  0  0  0  0  0  0  0  0  0
    7.7169   -0.5405    3.6142 H   0  0  0  0  0  0  0  0  0  0  0  0
    8.3627    0.2018    4.9525 H   0  0  0  0  0  0  0  0  0  0  0  0
    2.8242    3.3999    1.1880 H   0  0  0  0  0  0  0  0  0  0  0  0
    1.1844    4.1623   -0.3827 H   0  0  0  0  0  0  0  0  0  0  0  0
    1.4587    5.5833    1.6100 H   0  0  0  0  0  0  0  0  0  0  0  0
    0.2017    6.2261    0.5623 H   0  0  0  0  0  0  0  0  0  0  0  0
   -1.5658    5.2941    2.0389 H   0  0  0  0  0  0  0  0  0  0  0  0
   -0.3336    4.5408    3.0730 H   0  0  0  0  0  0  0  0  0  0  0  0
   -1.2027    7.4817    4.9203 H   0  0  0  0  0  0  0  0  0  0  0  0
   -1.7626    5.8637    4.6375 H   0  0  0  0  0  0  0  0  0  0  0  0
   -1.3681    3.0314    0.3092 H   0  0  0  0  0  0  0  0  0  0  0  0
   -2.3035    2.9483   -2.9915 H   0  0  0  0  0  0  0  0  0  0  0  0
   -3.1742    5.2856   -2.3071 H   0  0  0  0  0  0  0  0  0  0  0  0
   -3.7240    4.5839   -0.7909 H   0  0  0  0  0  0  0  0  0  0  0  0
   -4.6589    3.7226   -3.5861 H   0  0  0  0  0  0  0  0  0  0  0  0
   -5.2141    3.0060   -2.0766 H   0  0  0  0  0  0  0  0  0  0  0  0
   -6.0453    5.2610   -1.3117 H   0  0  0  0  0  0  0  0  0  0  0  0
   -6.9120    4.5750   -2.6779 H   0  0  0  0  0  0  0  0  0  0  0  0
   -5.9169    7.0361   -2.6472 H   0  0  0  0  0  0  0  0  0  0  0  0
   -6.4893    5.6121   -6.1352 H   0  0  0  0  0  0  0  0  0  0  0  0
   -4.9185    7.9553   -4.5058 H   0  0  0  0  0  0  0  0  0  0  0  0
   -5.6653    7.5686   -5.9379 H   0  0  0  0  0  0  0  0  0  0  0  0
   -3.7668    1.9529   -0.9814 H   0  0  0  0  0  0  0  0  0  0  0  0
   -3.7671   -0.2447   -0.8486 H   0  0  0  0  0  0  0  0  0  0  0  0
   -2.9546    0.6782    1.3114 H   0  0  0  0  0  0  0  0  0  0  0  0
   -1.4299   -0.1595    1.1238 H   0  0  0  0  0  0  0  0  0  0  0  0
   -1.2552   -1.8128    2.7473 H   0  0  0  0  0  0  0  0  0  0  0  0
   -2.1521   -3.7376    3.9707 H   0  0  0  0  0  0  0  0  0  0  0  0
   -4.0347   -5.2979    4.4604 H   0  0  0  0  0  0  0  0  0  0  0  0
   -6.3567   -6.0213    4.0642 H   0  0  0  0  0  0  0  0  0  0  0  0
   -7.7858   -4.7996    2.4472 H   0  0  0  0  0  0  0  0  0  0  0  0
   -6.8952   -2.8525    1.2289 H   0  0  0  0  0  0  0  0  0  0  0  0
   -5.0457   -1.2977    0.7628 H   0  0  0  0  0  0  0  0  0  0  0  0
   -1.1758   -1.7191   -1.0411 H   0  0  0  0  0  0  0  0  0  0  0  0
   -1.6129   -3.3307   -3.4673 H   0  0  0  0  0  0  0  0  0  0  0  0
   -3.9719   -4.1568   -3.7199 H   0  0  0  0  0  0  0  0  0  0  0  0
   -2.7835   -5.4415   -3.5216 H   0  0  0  0  0  0  0  0  0  0  0  0
   -4.7532   -5.9131   -2.1325 H   0  0  0  0  0  0  0  0  0  0  0  0
   -4.6315   -4.3465   -1.3421 H   0  0  0  0  0  0  0  0  0  0  0  0
   -3.6434   -6.0520    0.1147 H   0  0  0  0  0  0  0  0  0  0  0  0
   -2.6121   -6.6324   -1.1941 H   0  0  0  0  0  0  0  0  0  0  0  0
   -1.3135   -5.2239    0.3083 H   0  0  0  0  0  0  0  0  0  0  0  0
   -2.4480   -3.8997    0.1668 H   0  0  0  0  0  0  0  0  0  0  0  0
  1  2  1  0
  2  3  1  0
  3  4  1  0
  4  5  2  0
  4  6  1  0
  4  7  1  0
  2  8  1  0
  8  9  1  0
  9 10  1  0
 10 11  2  0
 10 12  1  0
 12 13  1  0
 13 14  1  0
 14 15  1  0
 15 16  1  0
 16 17  1  0
 17 18  2  3
 17 19  1  0
 12 20  1  0
 20 21  1  0
 21 22  2  0
 21 23  1  0
 23 24  1  0
 24 25  1  0
 25 26  1  0
 26 27  1  0
 27 28  1  0
 28 29  2  3
 28 30  1  0
 23 31  1  0
 31 32  1  0
 32 33  2  0
 32 34  1  0
 34 35  1  0
 35 36  1  0
 36 37  1  0
 37 38  1  0
 37 39  2  0
 34 40  1  0
 40 41  1  0
 41 42  2  0
 41 43  1  0
 43 44  1  0
 44 45  1  0
 45 46  1  0
 46 47  1  0
 47 48  1  0
 48 49  2  3
 48 50  1  0
 43 51  1  0
 51 52  1  0
 52 53  2  0
 52 54  1  0
 54 55  1  0
 55 56  1  0
 56 57  1  0
 57 58  2  0
 58 59  1  0
 59 60  2  0
 60 61  1  0
 61 62  2  0
 62 63  1  0
 63 64  2  0
 64 65  1  0
 54 66  1  0
 66 67  1  0
 67 68  2  0
 67 69  1  0
 69 70  1  0
 70 71  1  0
 71 72  1  0
 72 73  1  0
 73 74  1  0
 74 75  1  0
 75 76  2  0
 75  8  1  0
 65 56  2  0
 74 69  1  0
 64 59  1  0
  1 77  1  0
  1 78  1  0
  1 79  1  0
  2 80  1  1
  6 81  1  0
  7 82  1  0
  8 83  1  1
  9 84  1  0
 12 85  1  6
 13 86  1  0
 13 87  1  0
 14 88  1  0
 14 89  1  0
 15 90  1  0
 15 91  1  0
 16 92  1  0
 18 93  1  0
 19 94  1  0
 19 95  1  0
 20 96  1  0
 23 97  1  1
 24 98  1  0
 24 99  1  0
 25100  1  0
 25101  1  0
 26102  1  0
 26103  1  0
 27104  1  0
 29105  1  0
 30106  1  0
 30107  1  0
 31108  1  0
 34109  1  6
 35110  1  0
 35111  1  0
 36112  1  0
 36113  1  0
 38114  1  0
 38115  1  0
 40116  1  0
 43117  1  6
 44118  1  0
 44119  1  0
 45120  1  0
 45121  1  0
 46122  1  0
 46123  1  0
 47124  1  0
 49125  1  0
 50126  1  0
 50127  1  0
 51128  1  0
 54129  1  1
 55130  1  0
 55131  1  0
 57132  1  0
 58133  1  0
 60134  1  0
 61135  1  0
 62136  1  0
 63137  1  0
 65138  1  0
 66139  1  0
 69140  1  6
 70141  1  0
 70142  1  0
 71143  1  0
 71144  1  0
 72145  1  0
 72146  1  0
 73147  1  0
 73148  1  0
M  END
$$$$
