
     RDKit          3D

108111  0  0  0  0  0  0  0  0999 V2000
   -3.7740   -3.0556    1.3176 C   0  0  0  0  0  0  0  0  0  0  0  0
   -3.8189   -2.4540   -0.0606 C   0  0  0  0  0  0  0  0  0  0  0  0
   -3.1912   -2.9330   -0.9993 O   0  0  0  0  0  0  0  0  0  0  0  0
   -4.6357   -1.3544   -0.1655 N   0  0  0  0  0  0  0  0  0  0  0  0
   -4.8607   -0.6634   -1.4405 C   0  0  1  0  0  0  0  0  0  0  0  0
   -6.3585   -0.5708   -1.7752 C   0  0  0  0  0  0  0  0  0  0  0  0
   -7.0490   -1.9096   -1.8958 C   0  0  0  0  0  0  0  0  0  0  0  0
   -8.0181   -2.2940   -0.9574 C   0  0  0  0  0  0  0  0  0  0  0  0
   -8.6508   -3.5333   -1.0613 C   0  0  0  0  0  0  0  0  0  0  0  0
   -8.3206   -4.3995   -2.1033 C   0  0  0  0  0  0  0  0  0  0  0  0
   -7.3649   -4.0238   -3.0445 C   0  0  0  0  0  0  0  0  0  0  0  0
   -6.7343   -2.7830   -2.9444 C   0  0  0  0  0  0  0  0  0  0  0  0
   -4.2621    0.7594   -1.4131 C   0  0  0  0  0  0  0  0  0  0  0  0
   -4.5577    1.6339   -2.2268 O   0  0  0  0  0  0  0  0  0  0  0  0
   -3.2958    0.9680   -0.4554 N   0  0  0  0  0  0  0  0  0  0  0  0
   -2.7062    2.2859   -0.2095 C   0  0  2  0  0  0  0  0  0  0  0  0
   -1.4643    2.0757    0.6907 C   0  0  0  0  0  0  0  0  0  0  0  0
   -1.5301    1.2524    1.6209 O   0  0  0  0  0  0  0  0  0  0  0  0
   -0.3190    2.8492    0.4935 N   0  0  0  0  0  0  0  0  0  0  0  0
   -0.0794    3.6309   -0.7268 C   0  0  0  0  0  0  0  0  0  0  0  0
    0.9142    4.7683   -0.5170 C   0  0  0  0  0  0  0  0  0  0  0  0
    2.1992    4.2732    0.1228 C   0  0  0  0  0  0  0  0  0  0  0  0
    1.8906    3.5503    1.4286 C   0  0  0  0  0  0  0  0  0  0  0  0
    0.8839    2.4066    1.2322 C   0  0  2  0  0  0  0  0  0  0  0  0
    1.5534    1.1902    0.5369 C   0  0  0  0  0  0  0  0  0  0  0  0
    1.2346    0.7990   -0.5843 O   0  0  0  0  0  0  0  0  0  0  0  0
    2.5568    0.5931    1.2715 N   0  0  0  0  0  0  0  0  0  0  0  0
    3.2537   -0.5992    0.7858 C   0  0  1  0  0  0  0  0  0  0  0  0
    4.7323   -0.3210    0.4689 C   0  0  0  0  0  0  0  0  0  0  0  0
    4.9457    0.7688   -0.5570 C   0  0  0  0  0  0  0  0  0  0  0  0
    4.5472    0.5844   -1.8832 C   0  0  0  0  0  0  0  0  0  0  0  0
    4.7135    1.6071   -2.8187 C   0  0  0  0  0  0  0  0  0  0  0  0
    5.2823    2.8359   -2.4506 C   0  0  0  0  0  0  0  0  0  0  0  0
    5.4421    3.8769   -3.3795 C   0  0  0  0  0  0  0  0  0  0  0  0
    6.0021    5.0964   -2.9959 C   0  0  0  0  0  0  0  0  0  0  0  0
    6.4092    5.2907   -1.6795 C   0  0  0  0  0  0  0  0  0  0  0  0
    6.2610    4.2639   -0.7448 C   0  0  0  0  0  0  0  0  0  0  0  0
    5.6981    3.0307   -1.1148 C   0  0  0  0  0  0  0  0  0  0  0  0
    5.5277    1.9911   -0.1850 C   0  0  0  0  0  0  0  0  0  0  0  0
    3.1733   -1.6590    1.8966 C   0  0  0  0  0  0  0  0  0  0  0  0
    3.0469   -1.3690    3.0879 O   0  0  0  0  0  0  0  0  0  0  0  0
    3.3315   -2.9508    1.4669 N   0  0  0  0  0  0  0  0  0  0  0  0
    3.1803   -4.1258    2.3197 C   0  0  1  0  0  0  0  0  0  0  0  0
    2.6530   -5.3400    1.5312 C   0  0  0  0  0  0  0  0  0  0  0  0
    3.6318   -6.0450    0.5835 C   0  0  0  0  0  0  0  0  0  0  0  0
    4.0137   -5.2733   -0.6639 C   0  0  0  0  0  0  0  0  0  0  0  0
    4.6564   -6.0209   -1.6072 N   0  0  0  0  0  0  0  0  0  0  0  0
    3.8141   -4.0743   -0.8325 O   0  0  0  0  0  0  0  0  0  0  0  0
    4.4491   -4.4494    3.1440 C   0  0  0  0  0  0  0  0  0  0  0  0
    5.1225   -3.3683    3.6447 N   0  0  0  0  0  0  0  0  0  0  0  0
    4.7934   -5.5841    3.4652 O   0  0  0  0  0  0  0  0  0  0  0  0
   -3.7299    3.2249    0.4770 C   0  0  2  0  0  0  0  0  0  0  0  0
   -3.3018    4.6874    0.4071 C   0  0  0  0  0  0  0  0  0  0  0  0
   -3.9257    2.9176    1.8592 O   0  0  0  0  0  0  0  0  0  0  0  0
   -4.8444    1.6751    2.2759 P   0  0  0  0  0  0  0  0  0  0  0  0
   -6.1248    1.5132    1.5343 O   0  0  0  0  0  0  0  0  0  0  0  0
   -5.0259    1.8403    3.8506 O   0  0  0  0  0  0  0  0  0  0  0  0
   -3.8863    0.4008    2.1840 O   0  0  0  0  0  0  0  0  0  0  0  0
   -2.7849   -3.4921    1.4871 H   0  0  0  0  0  0  0  0  0  0  0  0
   -3.9509   -2.3029    2.0903 H   0  0  0  0  0  0  0  0  0  0  0  0
   -4.5361   -3.8354    1.3917 H   0  0  0  0  0  0  0  0  0  0  0  0
   -5.0513   -0.9580    0.6732 H   0  0  0  0  0  0  0  0  0  0  0  0
   -4.3288   -1.1998   -2.2361 H   0  0  0  0  0  0  0  0  0  0  0  0
   -6.5041   -0.0327   -2.7206 H   0  0  0  0  0  0  0  0  0  0  0  0
   -6.8642    0.0344   -1.0120 H   0  0  0  0  0  0  0  0  0  0  0  0
   -8.2803   -1.6304   -0.1360 H   0  0  0  0  0  0  0  0  0  0  0  0
   -9.3985   -3.8233   -0.3280 H   0  0  0  0  0  0  0  0  0  0  0  0
   -8.8084   -5.3672   -2.1794 H   0  0  0  0  0  0  0  0  0  0  0  0
   -7.1057   -4.6977   -3.8572 H   0  0  0  0  0  0  0  0  0  0  0  0
   -5.9897   -2.5060   -3.6876 H   0  0  0  0  0  0  0  0  0  0  0  0
   -3.1514    0.2362    0.2378 H   0  0  0  0  0  0  0  0  0  0  0  0
   -2.4385    2.6721   -1.1950 H   0  0  0  0  0  0  0  0  0  0  0  0
    0.2747    2.9455   -1.5031 H   0  0  0  0  0  0  0  0  0  0  0  0
   -1.0088    4.0702   -1.0892 H   0  0  0  0  0  0  0  0  0  0  0  0
    1.1312    5.2530   -1.4762 H   0  0  0  0  0  0  0  0  0  0  0  0
    0.4612    5.5274    0.1322 H   0  0  0  0  0  0  0  0  0  0  0  0
    2.7111    3.5994   -0.5692 H   0  0  0  0  0  0  0  0  0  0  0  0
    2.8727    5.1166    0.3100 H   0  0  0  0  0  0  0  0  0  0  0  0
    1.4713    4.2735    2.1401 H   0  0  0  0  0  0  0  0  0  0  0  0
    2.8261    3.1853    1.8659 H   0  0  0  0  0  0  0  0  0  0  0  0
    0.5788    2.0637    2.2308 H   0  0  0  0  0  0  0  0  0  0  0  0
    2.6151    0.7699    2.2684 H   0  0  0  0  0  0  0  0  0  0  0  0
    2.7419   -0.9930   -0.1002 H   0  0  0  0  0  0  0  0  0  0  0  0
    5.2218   -1.2361    0.1098 H   0  0  0  0  0  0  0  0  0  0  0  0
    5.2610   -0.0555    1.3932 H   0  0  0  0  0  0  0  0  0  0  0  0
    4.0856   -0.3508   -2.1976 H   0  0  0  0  0  0  0  0  0  0  0  0
    4.3855    1.4375   -3.8414 H   0  0  0  0  0  0  0  0  0  0  0  0
    5.1278    3.7436   -4.4123 H   0  0  0  0  0  0  0  0  0  0  0  0
    6.1201    5.8929   -3.7262 H   0  0  0  0  0  0  0  0  0  0  0  0
    6.8437    6.2402   -1.3797 H   0  0  0  0  0  0  0  0  0  0  0  0
    6.5845    4.4338    0.2790 H   0  0  0  0  0  0  0  0  0  0  0  0
    5.8395    2.1424    0.8455 H   0  0  0  0  0  0  0  0  0  0  0  0
    3.4965   -3.1162    0.4701 H   0  0  0  0  0  0  0  0  0  0  0  0
    2.4152   -3.8668    3.0639 H   0  0  0  0  0  0  0  0  0  0  0  0
    1.7646   -5.0346    0.9634 H   0  0  0  0  0  0  0  0  0  0  0  0
    2.3152   -6.0930    2.2564 H   0  0  0  0  0  0  0  0  0  0  0  0
    3.1544   -6.9753    0.2550 H   0  0  0  0  0  0  0  0  0  0  0  0
    4.5502   -6.3298    1.1010 H   0  0  0  0  0  0  0  0  0  0  0  0
    4.9668   -5.5630   -2.4547 H   0  0  0  0  0  0  0  0  0  0  0  0
    4.9377   -6.9792   -1.4490 H   0  0  0  0  0  0  0  0  0  0  0  0
    5.8357   -3.5692    4.3337 H   0  0  0  0  0  0  0  0  0  0  0  0
    4.6067   -2.4980    3.7480 H   0  0  0  0  0  0  0  0  0  0  0  0
   -4.7001    3.1575   -0.0263 H   0  0  0  0  0  0  0  0  0  0  0  0
   -4.0590    5.3299    0.8711 H   0  0  0  0  0  0  0  0  0  0  0  0
   -2.3724    4.8632    0.9586 H   0  0  0  0  0  0  0  0  0  0  0  0
   -3.1718    5.0140   -0.6305 H   0  0  0  0  0  0  0  0  0  0  0  0
   -5.8037    2.3886    4.0566 H   0  0  0  0  0  0  0  0  0  0  0  0
   -2.9717    0.6285    2.4714 H   0  0  0  0  0  0  0  0  0  0  0  0
  1  2  1  0
  2  3  2  0
  2  4  1  0
  4  5  1  0
  5  6  1  0
  6  7  1  0
  7  8  2  0
  8  9  1  0
  9 10  2  0
 10 11  1  0
 11 12  2  0
  5 13  1  0
 13 14  2  0
 13 15  1  0
 15 16  1  0
 16 17  1  0
 17 18  2  0
 17 19  1  0
 19 20  1  0
 20 21  1  0
 21 22  1  0
 22 23  1  0
 23 24  1  0
 24 25  1  0
 25 26  2  0
 25 27  1  0
 27 28  1  0
 28 29  1  0
 29 30  1  0
 30 31  1  0
 31 32  2  0
 32 33  1  0
 33 34  2  0
 34 35  1  0
 35 36  2  0
 36 37  1  0
 37 38  2  0
 38 39  1  0
 28 40  1  0
 40 41  2  0
 40 42  1  0
 42 43  1  0
 43 44  1  0
 44 45  1  0
 45 46  1  0
 46 47  1  0
 46 48  2  0
 43 49  1  0
 49 50  1  0
 49 51  2  0
 16 52  1  0
 52 53  1  0
 52 54  1  0
 54 55  1  0
 55 56  2  0
 55 57  1  0
 55 58  1  0
 12  7  1  0
 24 19  1  0
 39 30  2  0
 38 33  1  0
  1 59  1  0
  1 60  1  0
  1 61  1  0
  4 62  1  0
  5 63  1  6
  6 64  1  0
  6 65  1  0
  8 66  1  0
  9 67  1  0
 10 68  1  0
 11 69  1  0
 12 70  1  0
 15 71  1  0
 16 72  1  6
 20 73  1  0
 20 74  1  0
 21 75  1  0
 21 76  1  0
 22 77  1  0
 22 78  1  0
 23 79  1  0
 23 80  1  0
 24 81  1  1
 27 82  1  0
 28 83  1  6
 29 84  1  0
 29 85  1  0
 31 86  1  0
 32 87  1  0
 34 88  1  0
 35 89  1  0
 36 90  1  0
 37 91  1  0
 39 92  1  0
 42 93  1  0
 43 94  1  1
 44 95  1  0
 44 96  1  0
 45 97  1  0
 45 98  1  0
 47 99  1  0
 47100  1  0
 50101  1  0
 50102  1  0
 52103  1  6
 53104  1  0
 53105  1  0
 53106  1  0
 57107  1  0
 58108  1  0
M  END
$$$$
