
     RDKit          3D

 45 48  0  0  0  0  0  0  0  0999 V2000
    0.9294   -0.2952    2.5861 O   0  0  0  0  0  0  0  0  0  0  0  0
    0.8954    0.3919    1.5724 C   0  0  0  0  0  0  0  0  0  0  0  0
    0.0401    1.4503    1.4107 N   0  0  0  0  0  0  0  0  0  0  0  0
   -0.9303    1.8586    2.4328 C   0  0  2  0  0  0  0  0  0  0  0  0
   -2.0267    0.8110    2.6984 C   0  0  0  0  0  0  0  0  0  0  0  0
   -2.6728    0.2991    1.4451 C   0  0  0  0  0  0  0  0  0  0  0  0
   -3.7418    0.7721    0.7127 C   0  0  0  0  0  0  0  0  0  0  0  0
   -3.9035   -0.0724   -0.4200 C   0  0  0  0  0  0  0  0  0  0  0  0
   -4.7931   -0.0837   -1.5135 C   0  0  0  0  0  0  0  0  0  0  0  0
   -4.6669   -1.0822   -2.4862 C   0  0  0  0  0  0  0  0  0  0  0  0
   -3.6764   -2.0496   -2.3709 C   0  0  0  0  0  0  0  0  0  0  0  0
   -3.5751   -2.9935   -3.3171 F   0  0  0  0  0  0  0  0  0  0  0  0
   -2.7835   -2.0685   -1.3003 C   0  0  0  0  0  0  0  0  0  0  0  0
   -2.9237   -1.0633   -0.3369 C   0  0  0  0  0  0  0  0  0  0  0  0
   -2.2084   -0.8310    0.8146 N   0  0  0  0  0  0  0  0  0  0  0  0
   -1.5684    3.1985    2.0546 C   0  0  0  0  0  0  0  0  0  0  0  0
   -2.4240    3.8019    2.6829 O   0  0  0  0  0  0  0  0  0  0  0  0
   -1.0794    3.7277    0.9058 O   0  0  0  0  0  0  0  0  0  0  0  0
    1.7969    0.0924    0.4291 C   0  0  0  0  0  0  0  0  0  0  0  0
    1.4145    0.3408   -0.8929 C   0  0  0  0  0  0  0  0  0  0  0  0
    2.2852    0.0272   -1.9397 C   0  0  0  0  0  0  0  0  0  0  0  0
    3.5418   -0.5441   -1.6826 C   0  0  0  0  0  0  0  0  0  0  0  0
    4.4263   -0.8634   -2.7251 C   0  0  0  0  0  0  0  0  0  0  0  0
    5.6698   -1.4369   -2.4549 C   0  0  0  0  0  0  0  0  0  0  0  0
    6.0442   -1.6998   -1.1404 C   0  0  0  0  0  0  0  0  0  0  0  0
    5.1765   -1.3894   -0.0923 C   0  0  0  0  0  0  0  0  0  0  0  0
    3.9229   -0.8107   -0.3467 C   0  0  0  0  0  0  0  0  0  0  0  0
    3.0397   -0.4936    0.6974 C   0  0  0  0  0  0  0  0  0  0  0  0
    0.1140    2.0668    0.6081 H   0  0  0  0  0  0  0  0  0  0  0  0
   -0.3622    2.0342    3.3546 H   0  0  0  0  0  0  0  0  0  0  0  0
   -1.5971   -0.0377    3.2455 H   0  0  0  0  0  0  0  0  0  0  0  0
   -2.8011    1.2293    3.3537 H   0  0  0  0  0  0  0  0  0  0  0  0
   -4.3384    1.6427    0.9551 H   0  0  0  0  0  0  0  0  0  0  0  0
   -5.5675    0.6724   -1.6020 H   0  0  0  0  0  0  0  0  0  0  0  0
   -5.3421   -1.1084   -3.3357 H   0  0  0  0  0  0  0  0  0  0  0  0
   -2.0215   -2.8356   -1.2291 H   0  0  0  0  0  0  0  0  0  0  0  0
   -1.4312   -1.3947    1.1372 H   0  0  0  0  0  0  0  0  0  0  0  0
   -1.5826    4.5647    0.8083 H   0  0  0  0  0  0  0  0  0  0  0  0
    0.4358    0.7490   -1.1309 H   0  0  0  0  0  0  0  0  0  0  0  0
    1.9707    0.2234   -2.9630 H   0  0  0  0  0  0  0  0  0  0  0  0
    4.1522   -0.6685   -3.7597 H   0  0  0  0  0  0  0  0  0  0  0  0
    6.3448   -1.6797   -3.2716 H   0  0  0  0  0  0  0  0  0  0  0  0
    7.0118   -2.1479   -0.9293 H   0  0  0  0  0  0  0  0  0  0  0  0
    5.4871   -1.6041    0.9281 H   0  0  0  0  0  0  0  0  0  0  0  0
    3.3183   -0.7004    1.7297 H   0  0  0  0  0  0  0  0  0  0  0  0
  1  2  2  0
  2  3  1  0
  3  4  1  0
  4  5  1  0
  5  6  1  0
  6  7  2  0
  7  8  1  0
  8  9  2  0
  9 10  1  0
 10 11  2  0
 11 12  1  0
 11 13  1  0
 13 14  2  0
 14 15  1  0
  4 16  1  0
 16 17  2  0
 16 18  1  0
  2 19  1  0
 19 20  1  0
 20 21  2  0
 21 22  1  0
 22 23  2  0
 23 24  1  0
 24 25  2  0
 25 26  1  0
 26 27  2  0
 27 28  1  0
 15  6  1  0
 28 19  2  0
 14  8  1  0
 27 22  1  0
  3 29  1  0
  4 30  1  1
  5 31  1  0
  5 32  1  0
  7 33  1  0
  9 34  1  0
 10 35  1  0
 13 36  1  0
 15 37  1  0
 18 38  1  0
 20 39  1  0
 21 40  1  0
 23 41  1  0
 24 42  1  0
 25 43  1  0
 26 44  1  0
 28 45  1  0
M  END
$$$$
