
     RDKit          3D

123126  0  0  0  0  0  0  0  0999 V2000
    7.6033    2.1464    0.5550 C   0  0  0  0  0  0  0  0  0  0  0  0
    6.1222    1.8293    0.7281 C   0  0  0  0  0  0  0  0  0  0  0  0
    5.3567    1.7115   -0.6115 C   0  0  2  0  0  0  0  0  0  0  0  0
    5.3100    3.0558   -1.3463 C   0  0  0  0  0  0  0  0  0  0  0  0
    3.9229    1.1450   -0.4167 C   0  0  2  0  0  0  0  0  0  0  0  0
    3.1450    1.9279    0.5382 N   0  0  0  0  0  0  0  0  0  0  0  0
    2.1815    2.8203    0.1243 C   0  0  0  0  0  0  0  0  0  0  0  0
    1.9930    3.1069   -1.0581 O   0  0  0  0  0  0  0  0  0  0  0  0
    1.3941    3.4856    1.2675 C   0  0  1  0  0  0  0  0  0  0  0  0
    2.2496    4.5455    1.9438 C   0  0  0  0  0  0  0  0  0  0  0  0
    0.1872    4.0369    0.6791 N   0  0  0  0  0  0  0  0  0  0  0  0
   -0.9411    4.2989    1.4287 C   0  0  0  0  0  0  0  0  0  0  0  0
   -0.9074    4.5121    2.6379 O   0  0  0  0  0  0  0  0  0  0  0  0
   -2.2130    4.4533    0.5591 C   0  0  2  0  0  0  0  0  0  0  0  0
   -3.5095    4.3692    1.3837 C   0  0  0  0  0  0  0  0  0  0  0  0
   -3.8391    5.6717    2.1174 C   0  0  0  0  0  0  0  0  0  0  0  0
   -4.2766    6.7714    1.1712 C   0  0  0  0  0  0  0  0  0  0  0  0
   -4.4891    7.9745    1.7731 N   0  0  0  0  0  0  0  0  0  0  0  0
   -4.4470    6.6174   -0.0313 O   0  0  0  0  0  0  0  0  0  0  0  0
   -2.1953    3.4831   -0.5485 N   0  0  0  0  0  0  0  0  0  0  0  0
   -2.2245    2.1220   -0.3025 C   0  0  0  0  0  0  0  0  0  0  0  0
   -2.1000    1.6733    0.8357 O   0  0  0  0  0  0  0  0  0  0  0  0
   -2.3892    1.2116   -1.5443 C   0  0  2  0  0  0  0  0  0  0  0  0
   -3.6719    1.5282   -2.3268 C   0  0  0  0  0  0  0  0  0  0  0  0
   -4.9585    1.4094   -1.4909 C   0  0  0  0  0  0  0  0  0  0  0  0
   -6.1895    1.9639   -2.2128 C   0  0  0  0  0  0  0  0  0  0  0  0
   -6.0545    3.3954   -2.4556 N   0  0  0  0  0  0  0  0  0  0  0  0
   -2.3753   -0.1887   -1.1342 N   0  0  0  0  0  0  0  0  0  0  0  0
   -1.1926   -0.8598   -0.8885 C   0  0  0  0  0  0  0  0  0  0  0  0
   -0.0839   -0.3816   -1.1278 O   0  0  0  0  0  0  0  0  0  0  0  0
   -1.3797   -2.2557   -0.2557 C   0  0  2  0  0  0  0  0  0  0  0  0
   -1.7257   -2.1474    1.2419 C   0  0  0  0  0  0  0  0  0  0  0  0
   -3.1901   -1.9002    1.5341 C   0  0  0  0  0  0  0  0  0  0  0  0
   -3.5937   -0.7408    2.2062 C   0  0  0  0  0  0  0  0  0  0  0  0
   -4.9466   -0.4914    2.4527 C   0  0  0  0  0  0  0  0  0  0  0  0
   -5.9310   -1.4028    2.0414 C   0  0  0  0  0  0  0  0  0  0  0  0
   -7.2936   -1.1633    2.2786 C   0  0  0  0  0  0  0  0  0  0  0  0
   -8.2562   -2.0870    1.8731 C   0  0  0  0  0  0  0  0  0  0  0  0
   -7.8732   -3.2535    1.2206 C   0  0  0  0  0  0  0  0  0  0  0  0
   -6.5231   -3.5026    0.9730 C   0  0  0  0  0  0  0  0  0  0  0  0
   -5.5400   -2.5851    1.3748 C   0  0  0  0  0  0  0  0  0  0  0  0
   -4.1740   -2.8201    1.1310 C   0  0  0  0  0  0  0  0  0  0  0  0
   -0.1487   -3.0321   -0.4250 N   0  0  0  0  0  0  0  0  0  0  0  0
    0.0014   -3.9101   -1.4802 C   0  0  0  0  0  0  0  0  0  0  0  0
   -0.9135   -4.1841   -2.2515 O   0  0  0  0  0  0  0  0  0  0  0  0
    1.3311   -4.6974   -1.4875 C   0  0  2  0  0  0  0  0  0  0  0  0
    1.1382   -6.0358   -0.7619 C   0  0  0  0  0  0  0  0  0  0  0  0
    1.4787   -5.7040    0.6884 C   0  0  0  0  0  0  0  0  0  0  0  0
    2.6245   -4.7090    0.5549 C   0  0  0  0  0  0  0  0  0  0  0  0
    2.4110   -4.0490   -0.7282 N   0  0  0  0  0  0  0  0  0  0  0  0
    3.2741   -3.1731   -1.3429 C   0  0  0  0  0  0  0  0  0  0  0  0
    3.1148   -2.8184   -2.5192 O   0  0  0  0  0  0  0  0  0  0  0  0
    4.4889   -2.6511   -0.5548 C   0  0  1  0  0  0  0  0  0  0  0  0
    5.7482   -3.3541   -1.0963 C   0  0  1  0  0  0  0  0  0  0  0  0
    7.0226   -2.8061   -0.4624 C   0  0  0  0  0  0  0  0  0  0  0  0
    5.6966   -4.7424   -0.7794 O   0  0  0  0  0  0  0  0  0  0  0  0
    5.8350   -5.7953   -1.9779 P   0  0  0  0  0  0  0  0  0  0  0  0
    6.9568   -5.5840   -2.9303 O   0  0  0  0  0  0  0  0  0  0  0  0
    4.3996   -5.7970   -2.6716 O   0  0  0  0  0  0  0  0  0  0  0  0
    5.8524   -7.2161   -1.2547 O   0  0  0  0  0  0  0  0  0  0  0  0
    4.5282   -1.2070   -0.8110 N   0  0  0  0  0  0  0  0  0  0  0  0
    3.9503   -0.3196    0.0727 C   0  0  0  0  0  0  0  0  0  0  0  0
    3.5196   -0.6601    1.1741 O   0  0  0  0  0  0  0  0  0  0  0  0
    8.0805    2.2242    1.5330 H   0  0  0  0  0  0  0  0  0  0  0  0
    8.1076    1.3558   -0.0082 H   0  0  0  0  0  0  0  0  0  0  0  0
    7.7565    3.0968    0.0389 H   0  0  0  0  0  0  0  0  0  0  0  0
    5.6667    2.6060    1.3560 H   0  0  0  0  0  0  0  0  0  0  0  0
    6.0489    0.8877    1.2823 H   0  0  0  0  0  0  0  0  0  0  0  0
    5.9116    1.0161   -1.2547 H   0  0  0  0  0  0  0  0  0  0  0  0
    6.3090    3.3608   -1.6756 H   0  0  0  0  0  0  0  0  0  0  0  0
    4.6846    2.9938   -2.2445 H   0  0  0  0  0  0  0  0  0  0  0  0
    4.9115    3.8505   -0.7077 H   0  0  0  0  0  0  0  0  0  0  0  0
    3.3967    1.1337   -1.3817 H   0  0  0  0  0  0  0  0  0  0  0  0
    3.0617    1.5247    1.4684 H   0  0  0  0  0  0  0  0  0  0  0  0
    1.0997    2.7124    1.9903 H   0  0  0  0  0  0  0  0  0  0  0  0
    1.7077    5.0367    2.7561 H   0  0  0  0  0  0  0  0  0  0  0  0
    3.1564    4.1048    2.3653 H   0  0  0  0  0  0  0  0  0  0  0  0
    2.5567    5.3180    1.2298 H   0  0  0  0  0  0  0  0  0  0  0  0
    0.0141    3.7635   -0.2892 H   0  0  0  0  0  0  0  0  0  0  0  0
   -2.1329    5.4344    0.0748 H   0  0  0  0  0  0  0  0  0  0  0  0
   -4.3499    4.1055    0.7289 H   0  0  0  0  0  0  0  0  0  0  0  0
   -3.4315    3.5639    2.1238 H   0  0  0  0  0  0  0  0  0  0  0  0
   -4.6675    5.4901    2.8100 H   0  0  0  0  0  0  0  0  0  0  0  0
   -2.9841    6.0247    2.7023 H   0  0  0  0  0  0  0  0  0  0  0  0
   -4.7174    8.7659    1.1827 H   0  0  0  0  0  0  0  0  0  0  0  0
   -4.2189    8.1585    2.7294 H   0  0  0  0  0  0  0  0  0  0  0  0
   -2.5367    3.8221   -1.4402 H   0  0  0  0  0  0  0  0  0  0  0  0
   -1.5194    1.3843   -2.1907 H   0  0  0  0  0  0  0  0  0  0  0  0
   -3.7443    0.8462   -3.1835 H   0  0  0  0  0  0  0  0  0  0  0  0
   -3.5873    2.5366   -2.7437 H   0  0  0  0  0  0  0  0  0  0  0  0
   -5.1454    0.3543   -1.2554 H   0  0  0  0  0  0  0  0  0  0  0  0
   -4.8467    1.9286   -0.5333 H   0  0  0  0  0  0  0  0  0  0  0  0
   -7.0810    1.7882   -1.5998 H   0  0  0  0  0  0  0  0  0  0  0  0
   -6.3313    1.4441   -3.1678 H   0  0  0  0  0  0  0  0  0  0  0  0
   -5.9950    3.8979   -1.5684 H   0  0  0  0  0  0  0  0  0  0  0  0
   -6.9012    3.7421   -2.9075 H   0  0  0  0  0  0  0  0  0  0  0  0
   -3.1812   -0.5033   -0.6075 H   0  0  0  0  0  0  0  0  0  0  0  0
   -2.1792   -2.7630   -0.8064 H   0  0  0  0  0  0  0  0  0  0  0  0
   -1.4538   -3.0761    1.7604 H   0  0  0  0  0  0  0  0  0  0  0  0
   -1.1181   -1.3612    1.7069 H   0  0  0  0  0  0  0  0  0  0  0  0
   -2.8576   -0.0152    2.5465 H   0  0  0  0  0  0  0  0  0  0  0  0
   -5.2239    0.4250    2.9719 H   0  0  0  0  0  0  0  0  0  0  0  0
   -7.6086   -0.2577    2.7916 H   0  0  0  0  0  0  0  0  0  0  0  0
   -9.3073   -1.8932    2.0665 H   0  0  0  0  0  0  0  0  0  0  0  0
   -8.6207   -3.9773    0.9098 H   0  0  0  0  0  0  0  0  0  0  0  0
   -6.2380   -4.4183    0.4600 H   0  0  0  0  0  0  0  0  0  0  0  0
   -3.8732   -3.7391    0.6262 H   0  0  0  0  0  0  0  0  0  0  0  0
    0.7115   -2.5783   -0.1320 H   0  0  0  0  0  0  0  0  0  0  0  0
    1.6265   -4.8412   -2.5344 H   0  0  0  0  0  0  0  0  0  0  0  0
    1.8553   -6.7723   -1.1466 H   0  0  0  0  0  0  0  0  0  0  0  0
    0.1315   -6.4541   -0.8615 H   0  0  0  0  0  0  0  0  0  0  0  0
    1.7546   -6.5900    1.2688 H   0  0  0  0  0  0  0  0  0  0  0  0
    0.6177   -5.2339    1.1791 H   0  0  0  0  0  0  0  0  0  0  0  0
    2.6261   -3.9766    1.3657 H   0  0  0  0  0  0  0  0  0  0  0  0
    3.5860   -5.2321    0.5350 H   0  0  0  0  0  0  0  0  0  0  0  0
    4.3749   -2.8341    0.5157 H   0  0  0  0  0  0  0  0  0  0  0  0
    5.8143   -3.2196   -2.1834 H   0  0  0  0  0  0  0  0  0  0  0  0
    7.8946   -3.3799   -0.7978 H   0  0  0  0  0  0  0  0  0  0  0  0
    7.1824   -1.7539   -0.7197 H   0  0  0  0  0  0  0  0  0  0  0  0
    6.9875   -2.9031    0.6297 H   0  0  0  0  0  0  0  0  0  0  0  0
    4.3216   -5.1093   -3.3673 H   0  0  0  0  0  0  0  0  0  0  0  0
    6.1284   -7.9145   -1.8786 H   0  0  0  0  0  0  0  0  0  0  0  0
    4.4787   -0.9418   -1.7929 H   0  0  0  0  0  0  0  0  0  0  0  0
  1  2  1  0
  2  3  1  0
  3  4  1  0
  3  5  1  0
  5  6  1  0
  6  7  1  0
  7  8  2  0
  7  9  1  0
  9 10  1  0
  9 11  1  0
 11 12  1  0
 12 13  2  0
 12 14  1  0
 14 15  1  0
 15 16  1  0
 16 17  1  0
 17 18  1  0
 17 19  2  0
 14 20  1  0
 20 21  1  0
 21 22  2  0
 21 23  1  0
 23 24  1  0
 24 25  1  0
 25 26  1  0
 26 27  1  0
 23 28  1  0
 28 29  1  0
 29 30  2  0
 29 31  1  0
 31 32  1  0
 32 33  1  0
 33 34  1  0
 34 35  2  0
 35 36  1  0
 36 37  2  0
 37 38  1  0
 38 39  2  0
 39 40  1  0
 40 41  2  0
 41 42  1  0
 31 43  1  0
 43 44  1  0
 44 45  2  0
 44 46  1  0
 46 47  1  0
 47 48  1  0
 48 49  1  0
 49 50  1  0
 50 51  1  0
 51 52  2  0
 51 53  1  0
 53 54  1  0
 54 55  1  0
 54 56  1  0
 56 57  1  0
 57 58  2  0
 57 59  1  0
 57 60  1  0
 53 61  1  0
 61 62  1  0
 62 63  2  0
 62  5  1  0
 42 33  2  0
 50 46  1  0
 41 36  1  0
  1 64  1  0
  1 65  1  0
  1 66  1  0
  2 67  1  0
  2 68  1  0
  3 69  1  6
  4 70  1  0
  4 71  1  0
  4 72  1  0
  5 73  1  6
  6 74  1  0
  9 75  1  1
 10 76  1  0
 10 77  1  0
 10 78  1  0
 11 79  1  0
 14 80  1  6
 15 81  1  0
 15 82  1  0
 16 83  1  0
 16 84  1  0
 18 85  1  0
 18 86  1  0
 20 87  1  0
 23 88  1  6
 24 89  1  0
 24 90  1  0
 25 91  1  0
 25 92  1  0
 26 93  1  0
 26 94  1  0
 27 95  1  0
 27 96  1  0
 28 97  1  0
 31 98  1  6
 32 99  1  0
 32100  1  0
 34101  1  0
 35102  1  0
 37103  1  0
 38104  1  0
 39105  1  0
 40106  1  0
 42107  1  0
 43108  1  0
 46109  1  6
 47110  1  0
 47111  1  0
 48112  1  0
 48113  1  0
 49114  1  0
 49115  1  0
 53116  1  1
 54117  1  6
 55118  1  0
 55119  1  0
 55120  1  0
 59121  1  0
 60122  1  0
 61123  1  0
M  END
$$$$
