
     RDKit          3D

 47 50  0  0  0  0  0  0  0  0999 V2000
    4.0731    2.1078    2.7280 C   0  0  0  0  0  0  0  0  0  0  0  0
    3.4324    1.0028    1.9392 C   0  0  0  0  0  0  0  0  0  0  0  0
    2.7475   -0.0298    2.5978 C   0  0  0  0  0  0  0  0  0  0  0  0
    2.1168   -1.0635    1.8933 C   0  0  0  0  0  0  0  0  0  0  0  0
    2.1925   -1.0089    0.5017 C   0  0  0  0  0  0  0  0  0  0  0  0
    1.7031   -1.8268   -0.4826 N   0  0  0  0  0  0  0  0  0  0  0  0
    2.0244   -1.2724   -1.6988 C   0  0  0  0  0  0  0  0  0  0  0  0
    1.5244   -1.8478   -2.9836 C   0  0  0  0  0  0  0  0  0  0  0  0
    0.3870   -1.0042   -3.5808 C   0  0  1  0  0  0  0  0  0  0  0  0
   -0.6272   -0.6075   -2.5962 N   0  0  0  0  0  0  0  0  0  0  0  0
   -1.3718   -1.5073   -1.8809 C   0  0  0  0  0  0  0  0  0  0  0  0
   -1.3466   -2.7157   -2.0811 O   0  0  0  0  0  0  0  0  0  0  0  0
   -2.2009   -0.9437   -0.7874 C   0  0  0  0  0  0  0  0  0  0  0  0
   -3.4342   -1.5348   -0.5078 C   0  0  0  0  0  0  0  0  0  0  0  0
   -4.2214   -1.0421    0.5349 C   0  0  0  0  0  0  0  0  0  0  0  0
   -3.7779    0.0336    1.3215 C   0  0  0  0  0  0  0  0  0  0  0  0
   -4.5548    0.5361    2.3772 C   0  0  0  0  0  0  0  0  0  0  0  0
   -4.0947    1.5967    3.1595 C   0  0  0  0  0  0  0  0  0  0  0  0
   -2.8521    2.1668    2.8985 C   0  0  0  0  0  0  0  0  0  0  0  0
   -2.0670    1.6806    1.8522 C   0  0  0  0  0  0  0  0  0  0  0  0
   -2.5176    0.6184    1.0524 C   0  0  0  0  0  0  0  0  0  0  0  0
   -1.7378    0.1215   -0.0036 C   0  0  0  0  0  0  0  0  0  0  0  0
    0.9755    0.2305   -4.2684 C   0  0  0  0  0  0  0  0  0  0  0  0
    1.8009    0.2328   -5.1687 O   0  0  0  0  0  0  0  0  0  0  0  0
    0.4811    1.4019   -3.7991 O   0  0  0  0  0  0  0  0  0  0  0  0
    2.7278   -0.1697   -1.5465 N   0  0  0  0  0  0  0  0  0  0  0  0
    2.8415    0.0073   -0.1884 C   0  0  0  0  0  0  0  0  0  0  0  0
    3.4709    1.0321    0.5335 C   0  0  0  0  0  0  0  0  0  0  0  0
    4.9427    2.5119    2.1990 H   0  0  0  0  0  0  0  0  0  0  0  0
    3.3528    2.9150    2.8937 H   0  0  0  0  0  0  0  0  0  0  0  0
    4.4252    1.7416    3.6980 H   0  0  0  0  0  0  0  0  0  0  0  0
    2.7029   -0.0398    3.6861 H   0  0  0  0  0  0  0  0  0  0  0  0
    1.5952   -1.8612    2.4110 H   0  0  0  0  0  0  0  0  0  0  0  0
    1.1403   -2.6557   -0.3456 H   0  0  0  0  0  0  0  0  0  0  0  0
    2.3609   -1.9299   -3.6879 H   0  0  0  0  0  0  0  0  0  0  0  0
    1.1704   -2.8713   -2.8092 H   0  0  0  0  0  0  0  0  0  0  0  0
   -0.1332   -1.5790   -4.3563 H   0  0  0  0  0  0  0  0  0  0  0  0
   -0.6887    0.3905   -2.4156 H   0  0  0  0  0  0  0  0  0  0  0  0
   -3.7849   -2.3772   -1.1002 H   0  0  0  0  0  0  0  0  0  0  0  0
   -5.1831   -1.5104    0.7342 H   0  0  0  0  0  0  0  0  0  0  0  0
   -5.5268    0.1019    2.6008 H   0  0  0  0  0  0  0  0  0  0  0  0
   -4.7065    1.9752    3.9744 H   0  0  0  0  0  0  0  0  0  0  0  0
   -2.4919    2.9904    3.5096 H   0  0  0  0  0  0  0  0  0  0  0  0
   -1.0971    2.1380    1.6666 H   0  0  0  0  0  0  0  0  0  0  0  0
   -0.7548    0.5500   -0.1884 H   0  0  0  0  0  0  0  0  0  0  0  0
    1.0071    2.0746   -4.2823 H   0  0  0  0  0  0  0  0  0  0  0  0
    3.9746    1.8284   -0.0036 H   0  0  0  0  0  0  0  0  0  0  0  0
  1  2  1  0
  2  3  2  0
  3  4  1  0
  4  5  2  0
  5  6  1  0
  6  7  1  0
  7  8  1  0
  8  9  1  0
  9 10  1  0
 10 11  1  0
 11 12  2  0
 11 13  1  0
 13 14  1  0
 14 15  2  0
 15 16  1  0
 16 17  2  0
 17 18  1  0
 18 19  2  0
 19 20  1  0
 20 21  2  0
 21 22  1  0
  9 23  1  0
 23 24  2  0
 23 25  1  0
  7 26  2  0
 26 27  1  0
 27 28  2  0
 28  2  1  0
 27  5  1  0
 22 13  2  0
 21 16  1  0
  1 29  1  0
  1 30  1  0
  1 31  1  0
  3 32  1  0
  4 33  1  0
  6 34  1  0
  8 35  1  0
  8 36  1  0
  9 37  1  6
 10 38  1  0
 14 39  1  0
 15 40  1  0
 17 41  1  0
 18 42  1  0
 19 43  1  0
 20 44  1  0
 22 45  1  0
 25 46  1  0
 28 47  1  0
M  END
$$$$
