
     RDKit          3D

318326  0  0  0  0  0  0  0  0999 V2000
    6.2861    5.4323    1.3216 C   0  0  0  0  0  0  0  0  0  0  0  0
    6.1642    4.1556    0.5005 C   0  0  2  0  0  0  0  0  0  0  0  0
    7.4448    3.8591   -0.1330 N   0  0  0  0  0  0  0  0  0  0  0  0
    8.0173    2.6074   -0.0801 C   0  0  0  0  0  0  0  0  0  0  0  0
    7.5819    1.6951    0.6240 O   0  0  0  0  0  0  0  0  0  0  0  0
    9.2348    2.4265   -1.0192 C   0  0  2  0  0  0  0  0  0  0  0  0
    8.7293    2.1256   -2.4366 C   0  0  0  0  0  0  0  0  0  0  0  0
    9.8004    1.7627   -3.4754 C   0  0  0  0  0  0  0  0  0  0  0  0
   10.7745    2.8925   -3.8132 C   0  0  0  0  0  0  0  0  0  0  0  0
   11.7081    3.1038   -2.7294 N   0  0  0  0  0  0  0  0  0  0  0  0
   12.7423    3.9720   -2.7765 C   0  0  0  0  0  0  0  0  0  0  0  0
   12.9039    4.9630   -3.5702 N   0  0  0  0  0  0  0  0  0  0  0  0
   13.6723    3.6680   -1.8511 N   0  0  0  0  0  0  0  0  0  0  0  0
   10.0712    1.3400   -0.5065 N   0  0  0  0  0  0  0  0  0  0  0  0
   10.9677    1.5936    0.5252 C   0  0  0  0  0  0  0  0  0  0  0  0
   11.1224    2.7181    0.9897 O   0  0  0  0  0  0  0  0  0  0  0  0
   11.6535    0.3212    1.0668 C   0  0  2  0  0  0  0  0  0  0  0  0
   12.7781    0.6132    2.0727 C   0  0  0  0  0  0  0  0  0  0  0  0
   13.9871    1.3511    1.5352 C   0  0  0  0  0  0  0  0  0  0  0  0
   14.9927    0.6680    0.8504 C   0  0  0  0  0  0  0  0  0  0  0  0
   16.1130    1.3474    0.3655 C   0  0  0  0  0  0  0  0  0  0  0  0
   16.2558    2.7280    0.5601 C   0  0  0  0  0  0  0  0  0  0  0  0
   17.3737    3.4253    0.0753 C   0  0  0  0  0  0  0  0  0  0  0  0
   17.4995    4.8005    0.2787 C   0  0  0  0  0  0  0  0  0  0  0  0
   16.5125    5.4959    0.9703 C   0  0  0  0  0  0  0  0  0  0  0  0
   15.3956    4.8171    1.4608 C   0  0  0  0  0  0  0  0  0  0  0  0
   15.2534    3.4325    1.2619 C   0  0  0  0  0  0  0  0  0  0  0  0
   14.1321    2.7322    1.7435 C   0  0  0  0  0  0  0  0  0  0  0  0
   12.0594   -0.5144   -0.0681 N   0  0  0  0  0  0  0  0  0  0  0  0
   12.1995   -1.8835    0.0277 C   0  0  0  0  0  0  0  0  0  0  0  0
   12.1191   -2.4823    1.0989 O   0  0  0  0  0  0  0  0  0  0  0  0
   12.4698   -2.5886   -1.3298 C   0  0  1  0  0  0  0  0  0  0  0  0
   13.8854   -2.3205   -1.8505 C   0  0  0  0  0  0  0  0  0  0  0  0
   14.9794   -3.0804   -1.0994 C   0  0  0  0  0  0  0  0  0  0  0  0
   14.4855   -4.3609   -0.4377 C   0  0  0  0  0  0  0  0  0  0  0  0
   13.2842   -4.9579   -1.1612 C   0  0  0  0  0  0  0  0  0  0  0  0
   12.1606   -4.0224   -1.2378 N   0  0  0  0  0  0  0  0  0  0  0  0
   10.8234   -4.3911   -1.3733 C   0  0  0  0  0  0  0  0  0  0  0  0
    9.9565   -3.5420   -1.6236 O   0  0  0  0  0  0  0  0  0  0  0  0
   10.4461   -5.8731   -1.1559 C   0  0  1  0  0  0  0  0  0  0  0  0
   10.4354   -6.1892    0.3594 C   0  0  2  0  0  0  0  0  0  0  0  0
   10.4011   -7.6841    0.6429 C   0  0  0  0  0  0  0  0  0  0  0  0
    9.2848   -5.6069    0.9789 O   0  0  0  0  0  0  0  0  0  0  0  0
    9.1305   -6.1285   -1.7474 N   0  0  0  0  0  0  0  0  0  0  0  0
    8.8336   -7.2784   -2.4319 C   0  0  0  0  0  0  0  0  0  0  0  0
    9.6806   -8.1082   -2.7595 O   0  0  0  0  0  0  0  0  0  0  0  0
    7.3470   -7.4802   -2.7172 C   0  0  0  0  0  0  0  0  0  0  0  0
    6.6315   -7.8330   -1.4869 N   0  0  0  0  0  0  0  0  0  0  0  0
    6.7913   -9.2061   -1.0284 C   0  0  0  0  0  0  0  0  0  0  0  0
    5.9157   -6.8377   -0.8326 C   0  0  0  0  0  0  0  0  0  0  0  0
    5.8701   -5.6841   -1.2758 O   0  0  0  0  0  0  0  0  0  0  0  0
    5.1820   -7.1734    0.4872 C   0  0  1  0  0  0  0  0  0  0  0  0
    6.1485   -7.0923    1.6610 C   0  0  0  0  0  0  0  0  0  0  0  0
    4.1030   -6.1952    0.6581 N   0  0  0  0  0  0  0  0  0  0  0  0
    2.8016   -6.5754    0.9090 C   0  0  0  0  0  0  0  0  0  0  0  0
    2.4641   -7.7400    1.0907 O   0  0  0  0  0  0  0  0  0  0  0  0
    1.7776   -5.4955    0.9387 C   0  0  0  0  0  0  0  0  0  0  0  0
    0.4375   -5.8356    0.7253 C   0  0  0  0  0  0  0  0  0  0  0  0
   -0.5683   -4.8582    0.7926 C   0  0  0  0  0  0  0  0  0  0  0  0
   -0.2411   -3.5220    1.0525 C   0  0  0  0  0  0  0  0  0  0  0  0
    1.1022   -3.1862    1.2640 C   0  0  0  0  0  0  0  0  0  0  0  0
    2.1043   -4.1693    1.2251 C   0  0  0  0  0  0  0  0  0  0  0  0
    1.5459   -1.7997    1.5562 C   0  0  0  0  0  0  0  0  0  0  0  0
    2.4450   -1.6135    2.3696 O   0  0  0  0  0  0  0  0  0  0  0  0
    0.9442   -0.7896    0.8466 N   0  0  0  0  0  0  0  0  0  0  0  0
    1.3452    0.5957    1.0478 C   0  0  0  0  0  0  0  0  0  0  0  0
    0.9730    1.5169   -0.1265 C   0  0  2  0  0  0  0  0  0  0  0  0
    1.7524    2.7658   -0.0898 N   0  0  0  0  0  0  0  0  0  0  0  0
    1.7848    3.5704   -1.2203 C   0  0  0  0  0  0  0  0  0  0  0  0
    1.0124    3.4054   -2.1602 O   0  0  0  0  0  0  0  0  0  0  0  0
    2.7132    4.7976   -1.1134 C   0  0  1  0  0  0  0  0  0  0  0  0
    1.8937    6.0014   -0.6688 C   0  0  0  0  0  0  0  0  0  0  0  0
    3.8209    4.5754   -0.1758 N   0  0  0  0  0  0  0  0  0  0  0  0
    5.0977    4.2846   -0.6125 C   0  0  0  0  0  0  0  0  0  0  0  0
    5.3682    4.1377   -1.8040 O   0  0  0  0  0  0  0  0  0  0  0  0
   -0.5511    1.7584   -0.0381 C   0  0  0  0  0  0  0  0  0  0  0  0
   -1.3598    0.8563   -0.2590 O   0  0  0  0  0  0  0  0  0  0  0  0
   -0.9190    2.9812    0.4616 N   0  0  0  0  0  0  0  0  0  0  0  0
   -2.3061    3.4085    0.5914 C   0  0  1  0  0  0  0  0  0  0  0  0
   -2.9492    2.9368    1.9082 C   0  0  0  0  0  0  0  0  0  0  0  0
   -2.2953    3.4951    3.1544 C   0  0  0  0  0  0  0  0  0  0  0  0
   -2.7544    4.6872    3.7313 C   0  0  0  0  0  0  0  0  0  0  0  0
   -2.1138    5.2238    4.8495 C   0  0  0  0  0  0  0  0  0  0  0  0
   -1.0134    4.5734    5.4043 C   0  0  0  0  0  0  0  0  0  0  0  0
   -0.5611    3.3770    4.8524 C   0  0  0  0  0  0  0  0  0  0  0  0
   -1.2018    2.8402    3.7357 C   0  0  0  0  0  0  0  0  0  0  0  0
   -2.3460    4.9415    0.4292 C   0  0  0  0  0  0  0  0  0  0  0  0
   -1.3243    5.6294    0.3764 O   0  0  0  0  0  0  0  0  0  0  0  0
   -3.6053    5.4839    0.3360 N   0  0  0  0  0  0  0  0  0  0  0  0
   -3.8288    6.9355    0.2638 C   0  0  1  0  0  0  0  0  0  0  0  0
   -3.6220    7.4633   -1.1625 C   0  0  0  0  0  0  0  0  0  0  0  0
   -3.9182    8.9339   -1.3321 C   0  0  0  0  0  0  0  0  0  0  0  0
   -5.0137    9.3481   -2.0933 C   0  0  0  0  0  0  0  0  0  0  0  0
   -5.3002   10.7065   -2.2459 C   0  0  0  0  0  0  0  0  0  0  0  0
   -4.4880   11.6821   -1.6494 C   0  0  0  0  0  0  0  0  0  0  0  0
   -4.7615   13.0496   -1.7971 C   0  0  0  0  0  0  0  0  0  0  0  0
   -3.9380   14.0114   -1.2104 C   0  0  0  0  0  0  0  0  0  0  0  0
   -2.8264   13.6139   -0.4705 C   0  0  0  0  0  0  0  0  0  0  0  0
   -2.5442   12.2568   -0.3104 C   0  0  0  0  0  0  0  0  0  0  0  0
   -3.3638   11.2762   -0.8931 C   0  0  0  0  0  0  0  0  0  0  0  0
   -3.0931    9.9036   -0.7436 C   0  0  0  0  0  0  0  0  0  0  0  0
   -5.2422    7.1694    0.8288 C   0  0  0  0  0  0  0  0  0  0  0  0
   -5.4340    7.6415    1.9453 O   0  0  0  0  0  0  0  0  0  0  0  0
   -6.2638    6.6720    0.0528 N   0  0  0  0  0  0  0  0  0  0  0  0
   -7.6161    6.4748    0.5742 C   0  0  1  0  0  0  0  0  0  0  0  0
   -8.4520    7.7532    0.5175 C   0  0  0  0  0  0  0  0  0  0  0  0
   -8.7712    8.2216   -0.9049 C   0  0  0  0  0  0  0  0  0  0  0  0
   -9.4743    9.5798   -0.8884 C   0  0  0  0  0  0  0  0  0  0  0  0
   -9.9188    9.9311   -2.2245 N   0  0  0  0  0  0  0  0  0  0  0  0
  -11.0790    9.5086   -2.7715 C   0  0  0  0  0  0  0  0  0  0  0  0
  -11.8912    8.6109   -2.3626 N   0  0  0  0  0  0  0  0  0  0  0  0
  -11.3513   10.1610   -3.9162 N   0  0  0  0  0  0  0  0  0  0  0  0
   -8.2078    5.2817   -0.2076 C   0  0  0  0  0  0  0  0  0  0  0  0
   -7.5511    4.7347   -1.0964 O   0  0  0  0  0  0  0  0  0  0  0  0
   -9.4714    4.8838    0.1869 N   0  0  0  0  0  0  0  0  0  0  0  0
  -10.0164    3.5434   -0.1237 C   0  0  1  0  0  0  0  0  0  0  0  0
   -9.8762    3.1426   -1.6018 C   0  0  0  0  0  0  0  0  0  0  0  0
  -10.6623    1.9204   -2.1065 C   0  0  0  0  0  0  0  0  0  0  0  0
  -12.1668    1.9757   -1.8758 C   0  0  0  0  0  0  0  0  0  0  0  0
  -12.5031    1.3757   -0.5807 N   0  0  0  0  0  0  0  0  0  0  0  0
  -13.5711    1.8431    0.1144 C   0  0  0  0  0  0  0  0  0  0  0  0
  -14.0826    3.0091   -0.0651 N   0  0  0  0  0  0  0  0  0  0  0  0
  -14.0287    1.0014    1.0597 N   0  0  0  0  0  0  0  0  0  0  0  0
   -9.3279    2.5577    0.8548 C   0  0  0  0  0  0  0  0  0  0  0  0
   -8.3375    2.8605    1.5258 O   0  0  0  0  0  0  0  0  0  0  0  0
   -9.9086    1.3213    0.9398 N   0  0  0  0  0  0  0  0  0  0  0  0
   -9.2648    0.2028    1.6031 C   0  0  1  0  0  0  0  0  0  0  0  0
   -9.8392   -0.0653    3.0088 C   0  0  0  0  0  0  0  0  0  0  0  0
  -11.3590   -0.2599    3.1241 C   0  0  0  0  0  0  0  0  0  0  0  0
  -11.8070   -1.7185    3.2562 C   0  0  0  0  0  0  0  0  0  0  0  0
  -12.0355   -2.3363    1.9574 N   0  0  0  0  0  0  0  0  0  0  0  0
  -11.8974   -3.6719    1.8144 C   0  0  0  0  0  0  0  0  0  0  0  0
  -11.8593   -4.5362    2.7628 N   0  0  0  0  0  0  0  0  0  0  0  0
  -11.7589   -4.0035    0.5183 N   0  0  0  0  0  0  0  0  0  0  0  0
   -9.3434   -1.0270    0.6853 C   0  0  0  0  0  0  0  0  0  0  0  0
  -10.3636   -1.2726    0.0424 O   0  0  0  0  0  0  0  0  0  0  0  0
   -8.2253   -1.8202    0.7204 N   0  0  0  0  0  0  0  0  0  0  0  0
   -8.0870   -3.1468    0.1018 C   0  0  1  0  0  0  0  0  0  0  0  0
   -8.2047   -3.1022   -1.4312 C   0  0  0  0  0  0  0  0  0  0  0  0
   -8.1870   -4.4492   -2.1771 C   0  0  0  0  0  0  0  0  0  0  0  0
   -9.3270   -5.4074   -1.8275 C   0  0  0  0  0  0  0  0  0  0  0  0
   -8.9539   -6.2648   -0.7042 N   0  0  0  0  0  0  0  0  0  0  0  0
   -9.8893   -6.8948    0.0449 C   0  0  0  0  0  0  0  0  0  0  0  0
  -11.1550   -6.6546    0.0305 N   0  0  0  0  0  0  0  0  0  0  0  0
   -9.3401   -7.8354    0.8483 N   0  0  0  0  0  0  0  0  0  0  0  0
   -6.6639   -3.6094    0.5106 C   0  0  0  0  0  0  0  0  0  0  0  0
   -5.7614   -2.8049    0.7563 O   0  0  0  0  0  0  0  0  0  0  0  0
   -6.4644   -4.9625    0.5165 N   0  0  0  0  0  0  0  0  0  0  0  0
   -5.1292   -5.5602    0.3482 C   0  0  2  0  0  0  0  0  0  0  0  0
   -5.3909   -7.0320   -0.0578 C   0  0  0  0  0  0  0  0  0  0  0  0
   -6.5248   -7.5118   -0.0440 O   0  0  0  0  0  0  0  0  0  0  0  0
   -4.2888   -7.7340   -0.4713 N   0  0  0  0  0  0  0  0  0  0  0  0
   -4.3430   -8.9700   -1.2441 C   0  0  1  0  0  0  0  0  0  0  0  0
   -5.1797  -10.1040   -0.6439 C   0  0  0  0  0  0  0  0  0  0  0  0
   -4.7491  -10.4783    0.7794 C   0  0  0  0  0  0  0  0  0  0  0  0
   -5.5429  -11.6864    1.2884 C   0  0  0  0  0  0  0  0  0  0  0  0
   -5.2963  -11.9905    2.7666 C   0  0  0  0  0  0  0  0  0  0  0  0
   -3.9055  -12.3370    3.0297 N   0  0  0  0  0  0  0  0  0  0  0  0
   -4.7861   -8.6616   -2.6800 C   0  0  0  0  0  0  0  0  0  0  0  0
   -5.3516   -7.6567   -3.0821 O   0  0  0  0  0  0  0  0  0  0  0  0
   -4.4790   -9.6503   -3.5455 O   0  0  0  0  0  0  0  0  0  0  0  0
   -4.2376   -5.4450    1.6024 C   0  0  0  0  0  0  0  0  0  0  0  0
   -2.9383   -4.7852    1.4069 N   0  0  0  0  0  0  0  0  0  0  0  0
   -1.9657   -5.3216    0.5928 C   0  0  0  0  0  0  0  0  0  0  0  0
   -2.1937   -6.2013   -0.2318 O   0  0  0  0  0  0  0  0  0  0  0  0
    7.0784    5.3329    2.0717 H   0  0  0  0  0  0  0  0  0  0  0  0
    6.5306    6.2942    0.6891 H   0  0  0  0  0  0  0  0  0  0  0  0
    5.3550    5.6627    1.8516 H   0  0  0  0  0  0  0  0  0  0  0  0
    5.8685    3.3277    1.1486 H   0  0  0  0  0  0  0  0  0  0  0  0
    7.6997    4.4521   -0.9176 H   0  0  0  0  0  0  0  0  0  0  0  0
    9.8076    3.3603   -0.9985 H   0  0  0  0  0  0  0  0  0  0  0  0
    8.1487    2.9806   -2.8073 H   0  0  0  0  0  0  0  0  0  0  0  0
    8.0241    1.2847   -2.3900 H   0  0  0  0  0  0  0  0  0  0  0  0
    9.2778    1.4923   -4.4017 H   0  0  0  0  0  0  0  0  0  0  0  0
   10.3448    0.8649   -3.1597 H   0  0  0  0  0  0  0  0  0  0  0  0
   11.3311    2.6170   -4.7172 H   0  0  0  0  0  0  0  0  0  0  0  0
   10.2252    3.8130   -4.0272 H   0  0  0  0  0  0  0  0  0  0  0  0
   11.9952    2.2504   -2.2675 H   0  0  0  0  0  0  0  0  0  0  0  0
   12.0996    5.0368   -4.1922 H   0  0  0  0  0  0  0  0  0  0  0  0
   14.3890    4.3878   -1.8244 H   0  0  0  0  0  0  0  0  0  0  0  0
   13.2855    3.5651   -0.9185 H   0  0  0  0  0  0  0  0  0  0  0  0
    9.6190    0.4330   -0.4554 H   0  0  0  0  0  0  0  0  0  0  0  0
   10.8708   -0.2285    1.6036 H   0  0  0  0  0  0  0  0  0  0  0  0
   13.1313   -0.3298    2.5116 H   0  0  0  0  0  0  0  0  0  0  0  0
   12.3646    1.1831    2.9157 H   0  0  0  0  0  0  0  0  0  0  0  0
   14.9205   -0.4065    0.7045 H   0  0  0  0  0  0  0  0  0  0  0  0
   16.8803    0.7862   -0.1623 H   0  0  0  0  0  0  0  0  0  0  0  0
   18.1574    2.9014   -0.4663 H   0  0  0  0  0  0  0  0  0  0  0  0
   18.3716    5.3329   -0.0997 H   0  0  0  0  0  0  0  0  0  0  0  0
   16.6114    6.5656    1.1317 H   0  0  0  0  0  0  0  0  0  0  0  0
   14.6353    5.3773    1.9980 H   0  0  0  0  0  0  0  0  0  0  0  0
   13.3563    3.2738    2.2860 H   0  0  0  0  0  0  0  0  0  0  0  0
   12.1028   -0.0742   -0.9800 H   0  0  0  0  0  0  0  0  0  0  0  0
   11.7733   -2.1354   -2.0481 H   0  0  0  0  0  0  0  0  0  0  0  0
   14.1189   -1.2499   -1.8447 H   0  0  0  0  0  0  0  0  0  0  0  0
   13.9216   -2.6323   -2.9024 H   0  0  0  0  0  0  0  0  0  0  0  0
   15.4323   -2.4397   -0.3359 H   0  0  0  0  0  0  0  0  0  0  0  0
   15.7846   -3.3151   -1.8062 H   0  0  0  0  0  0  0  0  0  0  0  0
   15.3007   -5.0914   -0.3930 H   0  0  0  0  0  0  0  0  0  0  0  0
   14.2078   -4.1431    0.6001 H   0  0  0  0  0  0  0  0  0  0  0  0
   12.9916   -5.8835   -0.6597 H   0  0  0  0  0  0  0  0  0  0  0  0
   13.5519   -5.2185   -2.1942 H   0  0  0  0  0  0  0  0  0  0  0  0
   11.1787   -6.4947   -1.6791 H   0  0  0  0  0  0  0  0  0  0  0  0
   11.3212   -5.7706    0.8439 H   0  0  0  0  0  0  0  0  0  0  0  0
   10.3918   -7.8673    1.7241 H   0  0  0  0  0  0  0  0  0  0  0  0
    9.4910   -8.1521    0.2521 H   0  0  0  0  0  0  0  0  0  0  0  0
   11.2664   -8.1940    0.2086 H   0  0  0  0  0  0  0  0  0  0  0  0
    9.5692   -5.2129    1.8248 H   0  0  0  0  0  0  0  0  0  0  0  0
    8.3755   -5.5148   -1.4468 H   0  0  0  0  0  0  0  0  0  0  0  0
    7.2179   -8.2868   -3.4468 H   0  0  0  0  0  0  0  0  0  0  0  0
    6.9458   -6.5700   -3.1697 H   0  0  0  0  0  0  0  0  0  0  0  0
    6.3315   -9.8723   -1.7643 H   0  0  0  0  0  0  0  0  0  0  0  0
    6.3368   -9.3935   -0.0553 H   0  0  0  0  0  0  0  0  0  0  0  0
    7.8588   -9.4377   -0.9528 H   0  0  0  0  0  0  0  0  0  0  0  0
    4.7357   -8.1667    0.4187 H   0  0  0  0  0  0  0  0  0  0  0  0
    5.6338   -7.3168    2.6016 H   0  0  0  0  0  0  0  0  0  0  0  0
    6.9820   -7.7925    1.5495 H   0  0  0  0  0  0  0  0  0  0  0  0
    6.5753   -6.0859    1.7512 H   0  0  0  0  0  0  0  0  0  0  0  0
    4.2938   -5.2822    0.2608 H   0  0  0  0  0  0  0  0  0  0  0  0
    0.1735   -6.8728    0.5151 H   0  0  0  0  0  0  0  0  0  0  0  0
   -1.0197   -2.7661    1.1009 H   0  0  0  0  0  0  0  0  0  0  0  0
    3.1320   -3.8821    1.4412 H   0  0  0  0  0  0  0  0  0  0  0  0
    0.1500   -0.9756    0.2402 H   0  0  0  0  0  0  0  0  0  0  0  0
    0.8844    0.9296    1.9838 H   0  0  0  0  0  0  0  0  0  0  0  0
    2.4297    0.6132    1.2053 H   0  0  0  0  0  0  0  0  0  0  0  0
    1.1804    1.0224   -1.0849 H   0  0  0  0  0  0  0  0  0  0  0  0
    2.6406    2.7377    0.3972 H   0  0  0  0  0  0  0  0  0  0  0  0
    3.1218    4.9762   -2.1134 H   0  0  0  0  0  0  0  0  0  0  0  0
    1.4851    5.8568    0.3379 H   0  0  0  0  0  0  0  0  0  0  0  0
    1.0506    6.1745   -1.3471 H   0  0  0  0  0  0  0  0  0  0  0  0
    2.5102    6.9072   -0.6509 H   0  0  0  0  0  0  0  0  0  0  0  0
    3.6454    4.7158    0.8131 H   0  0  0  0  0  0  0  0  0  0  0  0
   -0.2149    3.7136    0.5027 H   0  0  0  0  0  0  0  0  0  0  0  0
   -2.8658    2.9789   -0.2497 H   0  0  0  0  0  0  0  0  0  0  0  0
   -2.9204    1.8412    1.9601 H   0  0  0  0  0  0  0  0  0  0  0  0
   -4.0143    3.2009    1.9234 H   0  0  0  0  0  0  0  0  0  0  0  0
   -3.6087    5.2164    3.3166 H   0  0  0  0  0  0  0  0  0  0  0  0
   -2.4723    6.1536    5.2829 H   0  0  0  0  0  0  0  0  0  0  0  0
   -0.5119    4.9994    6.2710 H   0  0  0  0  0  0  0  0  0  0  0  0
    0.2912    2.8645    5.2905 H   0  0  0  0  0  0  0  0  0  0  0  0
   -0.8411    1.9055    3.3174 H   0  0  0  0  0  0  0  0  0  0  0  0
   -4.4161    4.8730    0.3546 H   0  0  0  0  0  0  0  0  0  0  0  0
   -3.1165    7.4216    0.9434 H   0  0  0  0  0  0  0  0  0  0  0  0
   -4.2286    6.8835   -1.8704 H   0  0  0  0  0  0  0  0  0  0  0  0
   -2.5863    7.2856   -1.4765 H   0  0  0  0  0  0  0  0  0  0  0  0
   -5.6575    8.6195   -2.5786 H   0  0  0  0  0  0  0  0  0  0  0  0
   -6.1597   10.9969   -2.8448 H   0  0  0  0  0  0  0  0  0  0  0  0
   -5.6248   13.3817   -2.3738 H   0  0  0  0  0  0  0  0  0  0  0  0
   -4.1600   15.0682   -1.3336 H   0  0  0  0  0  0  0  0  0  0  0  0
   -2.1829   14.3615   -0.0131 H   0  0  0  0  0  0  0  0  0  0  0  0
   -1.6716   11.9675    0.2704 H   0  0  0  0  0  0  0  0  0  0  0  0
   -2.2239    9.5898   -0.1680 H   0  0  0  0  0  0  0  0  0  0  0  0
   -6.0430    6.1325   -0.7804 H   0  0  0  0  0  0  0  0  0  0  0  0
   -7.5221    6.1547    1.6186 H   0  0  0  0  0  0  0  0  0  0  0  0
   -9.3959    7.5957    1.0520 H   0  0  0  0  0  0  0  0  0  0  0  0
   -7.9242    8.5528    1.0502 H   0  0  0  0  0  0  0  0  0  0  0  0
   -9.3978    7.4731   -1.4045 H   0  0  0  0  0  0  0  0  0  0  0  0
   -7.8551    8.3034   -1.5008 H   0  0  0  0  0  0  0  0  0  0  0  0
   -8.7708   10.3449   -0.5373 H   0  0  0  0  0  0  0  0  0  0  0  0
  -10.3186    9.5880   -0.1909 H   0  0  0  0  0  0  0  0  0  0  0  0
   -9.7470   10.9047   -2.4526 H   0  0  0  0  0  0  0  0  0  0  0  0
  -11.5528    8.1971   -1.4943 H   0  0  0  0  0  0  0  0  0  0  0  0
  -12.1472    9.7161   -4.3632 H   0  0  0  0  0  0  0  0  0  0  0  0
  -10.5635   10.1834   -4.5542 H   0  0  0  0  0  0  0  0  0  0  0  0
   -9.7567    5.2282    1.0937 H   0  0  0  0  0  0  0  0  0  0  0  0
  -11.0720    3.6103    0.1556 H   0  0  0  0  0  0  0  0  0  0  0  0
   -8.8268    2.9326   -1.8286 H   0  0  0  0  0  0  0  0  0  0  0  0
  -10.1594    4.0028   -2.2232 H   0  0  0  0  0  0  0  0  0  0  0  0
  -10.2349    0.9993   -1.6979 H   0  0  0  0  0  0  0  0  0  0  0  0
  -10.4905    1.8674   -3.1901 H   0  0  0  0  0  0  0  0  0  0  0  0
  -12.6798    1.3982   -2.6532 H   0  0  0  0  0  0  0  0  0  0  0  0
  -12.5183    3.0084   -1.9668 H   0  0  0  0  0  0  0  0  0  0  0  0
  -12.4390    0.3615   -0.6194 H   0  0  0  0  0  0  0  0  0  0  0  0
  -14.8413    3.1600    0.5997 H   0  0  0  0  0  0  0  0  0  0  0  0
  -14.9326    1.2154    1.4599 H   0  0  0  0  0  0  0  0  0  0  0  0
  -13.9062    0.0077    0.9066 H   0  0  0  0  0  0  0  0  0  0  0  0
  -10.8160    1.1743    0.5022 H   0  0  0  0  0  0  0  0  0  0  0  0
   -8.1999    0.4502    1.7241 H   0  0  0  0  0  0  0  0  0  0  0  0
   -9.5803    0.8111    3.6209 H   0  0  0  0  0  0  0  0  0  0  0  0
   -9.3090   -0.9127    3.4595 H   0  0  0  0  0  0  0  0  0  0  0  0
  -11.6684    0.2457    4.0461 H   0  0  0  0  0  0  0  0  0  0  0  0
  -11.8871    0.2326    2.3130 H   0  0  0  0  0  0  0  0  0  0  0  0
  -11.0745   -2.2841    3.8462 H   0  0  0  0  0  0  0  0  0  0  0  0
  -12.7579   -1.7524    3.8080 H   0  0  0  0  0  0  0  0  0  0  0  0
  -11.5621   -1.8668    1.1847 H   0  0  0  0  0  0  0  0  0  0  0  0
  -11.7163   -5.4509    2.3279 H   0  0  0  0  0  0  0  0  0  0  0  0
  -12.4253   -3.5756   -0.1049 H   0  0  0  0  0  0  0  0  0  0  0  0
  -11.6382   -4.9988    0.3070 H   0  0  0  0  0  0  0  0  0  0  0  0
   -7.3644   -1.4406    1.1052 H   0  0  0  0  0  0  0  0  0  0  0  0
   -8.8449   -3.7950    0.5551 H   0  0  0  0  0  0  0  0  0  0  0  0
   -9.1188   -2.5759   -1.7194 H   0  0  0  0  0  0  0  0  0  0  0  0
   -7.3811   -2.4952   -1.8302 H   0  0  0  0  0  0  0  0  0  0  0  0
   -7.2119   -4.9397   -2.0722 H   0  0  0  0  0  0  0  0  0  0  0  0
   -8.2778   -4.2094   -3.2432 H   0  0  0  0  0  0  0  0  0  0  0  0
   -9.5358   -6.0521   -2.6859 H   0  0  0  0  0  0  0  0  0  0  0  0
  -10.2393   -4.8365   -1.6236 H   0  0  0  0  0  0  0  0  0  0  0  0
   -8.2081   -6.9186   -0.9670 H   0  0  0  0  0  0  0  0  0  0  0  0
  -11.6126   -7.3438    0.6372 H   0  0  0  0  0  0  0  0  0  0  0  0
   -8.3347   -7.7312    0.9930 H   0  0  0  0  0  0  0  0  0  0  0  0
   -9.8234   -8.0179    1.7175 H   0  0  0  0  0  0  0  0  0  0  0  0
   -7.2596   -5.5412    0.2443 H   0  0  0  0  0  0  0  0  0  0  0  0
   -4.6741   -5.0507   -0.5095 H   0  0  0  0  0  0  0  0  0  0  0  0
   -3.4207   -7.1961   -0.5718 H   0  0  0  0  0  0  0  0  0  0  0  0
   -3.2978   -9.2970   -1.3087 H   0  0  0  0  0  0  0  0  0  0  0  0
   -6.2465   -9.8575   -0.6557 H   0  0  0  0  0  0  0  0  0  0  0  0
   -5.0798  -10.9918   -1.2822 H   0  0  0  0  0  0  0  0  0  0  0  0
   -4.9066   -9.6282    1.4555 H   0  0  0  0  0  0  0  0  0  0  0  0
   -3.6773  -10.7076    0.7865 H   0  0  0  0  0  0  0  0  0  0  0  0
   -5.3005  -12.5632    0.6796 H   0  0  0  0  0  0  0  0  0  0  0  0
   -6.6147  -11.4934    1.1563 H   0  0  0  0  0  0  0  0  0  0  0  0
   -5.9365  -12.8233    3.0738 H   0  0  0  0  0  0  0  0  0  0  0  0
   -5.5760  -11.1233    3.3743 H   0  0  0  0  0  0  0  0  0  0  0  0
   -3.7964  -12.5822    4.0134 H   0  0  0  0  0  0  0  0  0  0  0  0
   -3.6558  -13.1729    2.4992 H   0  0  0  0  0  0  0  0  0  0  0  0
   -4.8025   -9.3201   -4.4101 H   0  0  0  0  0  0  0  0  0  0  0  0
   -4.7430   -4.8729    2.3866 H   0  0  0  0  0  0  0  0  0  0  0  0
   -4.0199   -6.4337    2.0193 H   0  0  0  0  0  0  0  0  0  0  0  0
   -2.6498   -4.1577    2.1487 H   0  0  0  0  0  0  0  0  0  0  0  0
  1  2  1  0
  2  3  1  0
  3  4  1  0
  4  5  2  0
  4  6  1  0
  6  7  1  0
  7  8  1  0
  8  9  1  0
  9 10  1  0
 10 11  1  0
 11 12  2  3
 11 13  1  0
  6 14  1  0
 14 15  1  0
 15 16  2  0
 15 17  1  0
 17 18  1  0
 18 19  1  0
 19 20  1  0
 20 21  2  0
 21 22  1  0
 22 23  2  0
 23 24  1  0
 24 25  2  0
 25 26  1  0
 26 27  2  0
 27 28  1  0
 17 29  1  0
 29 30  1  0
 30 31  2  0
 30 32  1  0
 32 33  1  0
 33 34  1  0
 34 35  1  0
 35 36  1  0
 36 37  1  0
 37 38  1  0
 38 39  2  0
 38 40  1  0
 40 41  1  0
 41 42  1  0
 41 43  1  0
 40 44  1  0
 44 45  1  0
 45 46  2  0
 45 47  1  0
 47 48  1  0
 48 49  1  0
 48 50  1  0
 50 51  2  0
 50 52  1  0
 52 53  1  0
 52 54  1  0
 54 55  1  0
 55 56  2  0
 55 57  1  0
 57 58  1  0
 58 59  2  0
 59 60  1  0
 60 61  2  0
 61 62  1  0
 61 63  1  0
 63 64  2  0
 63 65  1  0
 65 66  1  0
 66 67  1  0
 67 68  1  0
 68 69  1  0
 69 70  2  0
 69 71  1  0
 71 72  1  0
 71 73  1  0
 73 74  1  0
 74 75  2  0
 67 76  1  0
 76 77  2  0
 76 78  1  0
 78 79  1  0
 79 80  1  0
 80 81  1  0
 81 82  2  0
 82 83  1  0
 83 84  2  0
 84 85  1  0
 85 86  2  0
 79 87  1  0
 87 88  2  0
 87 89  1  0
 89 90  1  0
 90 91  1  0
 91 92  1  0
 92 93  1  0
 93 94  2  0
 94 95  1  0
 95 96  2  0
 96 97  1  0
 97 98  2  0
 98 99  1  0
 99100  2  0
100101  1  0
 90102  1  0
102103  2  0
102104  1  0
104105  1  0
105106  1  0
106107  1  0
107108  1  0
108109  1  0
109110  1  0
110111  2  3
110112  1  0
105113  1  0
113114  2  0
113115  1  0
115116  1  0
116117  1  0
117118  1  0
118119  1  0
119120  1  0
120121  1  0
121122  2  3
121123  1  0
116124  1  0
124125  2  0
124126  1  0
126127  1  0
127128  1  0
128129  1  0
129130  1  0
130131  1  0
131132  1  0
132133  2  3
132134  1  0
127135  1  0
135136  2  0
135137  1  0
137138  1  0
138139  1  0
139140  1  0
140141  1  0
141142  1  0
142143  1  0
143144  2  3
143145  1  0
138146  1  0
146147  2  0
146148  1  0
148149  1  0
149150  1  0
150151  2  0
150152  1  0
152153  1  0
153154  1  0
154155  1  0
155156  1  0
156157  1  0
157158  1  0
153159  1  0
159160  2  0
159161  1  0
149162  1  0
162163  1  0
163164  1  0
164165  2  0
 74  2  1  0
 86 81  1  0
101 92  2  0
 28 19  2  0
 37 32  1  0
 62 57  2  0
100 95  1  0
 27 22  1  0
164 59  1  0
  1166  1  0
  1167  1  0
  1168  1  0
  2169  1  1
  3170  1  0
  6171  1  6
  7172  1  0
  7173  1  0
  8174  1  0
  8175  1  0
  9176  1  0
  9177  1  0
 10178  1  0
 12179  1  0
 13180  1  0
 13181  1  0
 14182  1  0
 17183  1  1
 18184  1  0
 18185  1  0
 20186  1  0
 21187  1  0
 23188  1  0
 24189  1  0
 25190  1  0
 26191  1  0
 28192  1  0
 29193  1  0
 32194  1  6
 33195  1  0
 33196  1  0
 34197  1  0
 34198  1  0
 35199  1  0
 35200  1  0
 36201  1  0
 36202  1  0
 40203  1  6
 41204  1  1
 42205  1  0
 42206  1  0
 42207  1  0
 43208  1  0
 44209  1  0
 47210  1  0
 47211  1  0
 49212  1  0
 49213  1  0
 49214  1  0
 52215  1  6
 53216  1  0
 53217  1  0
 53218  1  0
 54219  1  0
 58220  1  0
 60221  1  0
 62222  1  0
 65223  1  0
 66224  1  0
 66225  1  0
 67226  1  6
 68227  1  0
 71228  1  6
 72229  1  0
 72230  1  0
 72231  1  0
 73232  1  0
 78233  1  0
 79234  1  6
 80235  1  0
 80236  1  0
 82237  1  0
 83238  1  0
 84239  1  0
 85240  1  0
 86241  1  0
 89242  1  0
 90243  1  1
 91244  1  0
 91245  1  0
 93246  1  0
 94247  1  0
 96248  1  0
 97249  1  0
 98250  1  0
 99251  1  0
101252  1  0
104253  1  0
105254  1  1
106255  1  0
106256  1  0
107257  1  0
107258  1  0
108259  1  0
108260  1  0
109261  1  0
111262  1  0
112263  1  0
112264  1  0
115265  1  0
116266  1  1
117267  1  0
117268  1  0
118269  1  0
118270  1  0
119271  1  0
119272  1  0
120273  1  0
122274  1  0
123275  1  0
123276  1  0
126277  1  0
127278  1  1
128279  1  0
128280  1  0
129281  1  0
129282  1  0
130283  1  0
130284  1  0
131285  1  0
133286  1  0
134287  1  0
134288  1  0
137289  1  0
138290  1  1
139291  1  0
139292  1  0
140293  1  0
140294  1  0
141295  1  0
141296  1  0
142297  1  0
144298  1  0
145299  1  0
145300  1  0
148301  1  0
149302  1  6
152303  1  0
153304  1  6
154305  1  0
154306  1  0
155307  1  0
155308  1  0
156309  1  0
156310  1  0
157311  1  0
157312  1  0
158313  1  0
158314  1  0
161315  1  0
162316  1  0
162317  1  0
163318  1  0
M  END
$$$$
