
     RDKit          3D

338348  0  0  0  0  0  0  0  0999 V2000
    6.6832   -2.7949    2.2838 C   0  0  0  0  0  0  0  0  0  0  0  0
    7.1360   -3.9337    1.3734 C   0  0  2  0  0  0  0  0  0  0  0  0
    8.0061   -3.4461    0.3097 N   0  0  0  0  0  0  0  0  0  0  0  0
    9.3158   -3.1085    0.5630 C   0  0  0  0  0  0  0  0  0  0  0  0
    9.8446   -3.3087    1.6552 O   0  0  0  0  0  0  0  0  0  0  0  0
   10.0877   -2.4868   -0.6233 C   0  0  2  0  0  0  0  0  0  0  0  0
   10.3909   -3.4929   -1.7412 C   0  0  0  0  0  0  0  0  0  0  0  0
   11.5771   -4.4446   -1.5306 C   0  0  0  0  0  0  0  0  0  0  0  0
   11.4360   -5.3945   -0.3402 C   0  0  0  0  0  0  0  0  0  0  0  0
   12.4224   -6.4625   -0.4301 N   0  0  0  0  0  0  0  0  0  0  0  0
   12.1987   -7.5715   -1.1721 C   0  0  0  0  0  0  0  0  0  0  0  0
   11.2193   -7.7246   -1.9886 N   0  0  0  0  0  0  0  0  0  0  0  0
   13.1472   -8.5051   -0.9744 N   0  0  0  0  0  0  0  0  0  0  0  0
   11.2951   -1.8110   -0.1412 N   0  0  0  0  0  0  0  0  0  0  0  0
   11.4002   -0.4395   -0.1301 C   0  0  0  0  0  0  0  0  0  0  0  0
   10.5419    0.2887   -0.6350 O   0  0  0  0  0  0  0  0  0  0  0  0
   12.6821    0.1551    0.4986 C   0  0  2  0  0  0  0  0  0  0  0  0
   12.7137    0.0245    2.0269 C   0  0  0  0  0  0  0  0  0  0  0  0
   13.1728   -1.3302    2.5133 C   0  0  0  0  0  0  0  0  0  0  0  0
   12.3047   -2.1602    3.2257 C   0  0  0  0  0  0  0  0  0  0  0  0
   12.7147   -3.4315    3.6336 C   0  0  0  0  0  0  0  0  0  0  0  0
   14.0051   -3.8967    3.3486 C   0  0  0  0  0  0  0  0  0  0  0  0
   14.4280   -5.1749    3.7424 C   0  0  0  0  0  0  0  0  0  0  0  0
   15.7201   -5.6196    3.4562 C   0  0  0  0  0  0  0  0  0  0  0  0
   16.6040   -4.7883    2.7733 C   0  0  0  0  0  0  0  0  0  0  0  0
   16.1973   -3.5161    2.3731 C   0  0  0  0  0  0  0  0  0  0  0  0
   14.9012   -3.0549    2.6519 C   0  0  0  0  0  0  0  0  0  0  0  0
   14.4757   -1.7786    2.2505 C   0  0  0  0  0  0  0  0  0  0  0  0
   12.6920    1.5638    0.1075 N   0  0  0  0  0  0  0  0  0  0  0  0
   13.8342    2.2891   -0.1059 C   0  0  0  0  0  0  0  0  0  0  0  0
   14.9449    1.8413    0.1794 O   0  0  0  0  0  0  0  0  0  0  0  0
   13.6064    3.7394   -0.6082 C   0  0  1  0  0  0  0  0  0  0  0  0
   14.8867    4.2634   -1.2942 C   0  0  0  0  0  0  0  0  0  0  0  0
   14.5748    5.3703   -2.2966 C   0  0  0  0  0  0  0  0  0  0  0  0
   13.5827    4.9133   -3.3724 C   0  0  0  0  0  0  0  0  0  0  0  0
   12.7537    3.7068   -2.9333 C   0  0  0  0  0  0  0  0  0  0  0  0
   12.4283    3.8264   -1.5134 N   0  0  0  0  0  0  0  0  0  0  0  0
   11.1986    4.2257   -1.0092 C   0  0  0  0  0  0  0  0  0  0  0  0
   11.0461    4.3993    0.2078 O   0  0  0  0  0  0  0  0  0  0  0  0
    9.9859    4.3997   -1.9546 C   0  0  1  0  0  0  0  0  0  0  0  0
    9.2286    3.0580   -2.1515 C   0  0  2  0  0  0  0  0  0  0  0  0
    8.4873    2.5694   -0.9030 C   0  0  0  0  0  0  0  0  0  0  0  0
   10.0959    2.0294   -2.6441 O   0  0  0  0  0  0  0  0  0  0  0  0
    9.1371    5.4476   -1.3651 N   0  0  0  0  0  0  0  0  0  0  0  0
    8.0018    5.9018   -1.9845 C   0  0  0  0  0  0  0  0  0  0  0  0
    7.7528    5.5983   -3.1503 O   0  0  0  0  0  0  0  0  0  0  0  0
    7.0782    6.8599   -1.1810 C   0  0  2  0  0  0  0  0  0  0  0  0
    7.0387    6.6524    0.3480 C   0  0  0  0  0  0  0  0  0  0  0  0
    8.1160    7.3864    1.1227 C   0  0  0  0  0  0  0  0  0  0  0  0
    8.9989    6.6731    1.9499 C   0  0  0  0  0  0  0  0  0  0  0  0
    9.9917    7.3418    2.6713 C   0  0  0  0  0  0  0  0  0  0  0  0
   10.0895    8.7257    2.5815 C   0  0  0  0  0  0  0  0  0  0  0  0
   11.0398    9.3645    3.2718 F   0  0  0  0  0  0  0  0  0  0  0  0
    9.2125    9.4491    1.7858 C   0  0  0  0  0  0  0  0  0  0  0  0
    8.2236    8.7837    1.0608 C   0  0  0  0  0  0  0  0  0  0  0  0
    5.7349    6.7742   -1.7819 N   0  0  0  0  0  0  0  0  0  0  0  0
    4.9658    5.6357   -1.6501 C   0  0  0  0  0  0  0  0  0  0  0  0
    5.2777    4.7088   -0.9001 O   0  0  0  0  0  0  0  0  0  0  0  0
    3.6641    5.5901   -2.4797 C   0  0  1  0  0  0  0  0  0  0  0  0
    3.9321    5.4202   -3.9849 C   0  0  0  0  0  0  0  0  0  0  0  0
    4.2342    6.7146   -4.7047 C   0  0  0  0  0  0  0  0  0  0  0  0
    3.2445    7.6983   -4.8427 C   0  0  0  0  0  0  0  0  0  0  0  0
    3.5315    8.8982   -5.4941 C   0  0  0  0  0  0  0  0  0  0  0  0
    4.8017    9.1255   -6.0187 C   0  0  0  0  0  0  0  0  0  0  0  0
    5.7868    8.1486   -5.8973 C   0  0  0  0  0  0  0  0  0  0  0  0
    5.5035    6.9456   -5.2490 C   0  0  0  0  0  0  0  0  0  0  0  0
    2.9130    4.4348   -1.9617 N   0  0  0  0  0  0  0  0  0  0  0  0
    1.5408    4.4034   -1.9458 C   0  0  0  0  0  0  0  0  0  0  0  0
    0.8392    5.2859   -2.4315 O   0  0  0  0  0  0  0  0  0  0  0  0
    0.9155    3.2458   -1.2523 C   0  0  0  0  0  0  0  0  0  0  0  0
   -0.3364    3.4229   -0.6528 C   0  0  0  0  0  0  0  0  0  0  0  0
   -0.9295    2.3816    0.0845 C   0  0  0  0  0  0  0  0  0  0  0  0
   -0.3020    1.1346    0.1739 C   0  0  0  0  0  0  0  0  0  0  0  0
    0.9386    0.9628   -0.4531 C   0  0  0  0  0  0  0  0  0  0  0  0
    1.5524    2.0082   -1.1553 C   0  0  0  0  0  0  0  0  0  0  0  0
    1.6922   -0.2969   -0.3331 C   0  0  0  0  0  0  0  0  0  0  0  0
    2.7437   -0.3042    0.2968 O   0  0  0  0  0  0  0  0  0  0  0  0
    1.1860   -1.3712   -1.0215 N   0  0  0  0  0  0  0  0  0  0  0  0
    1.9590   -2.6042   -1.1492 C   0  0  0  0  0  0  0  0  0  0  0  0
    1.6276   -3.6406   -0.0595 C   0  0  2  0  0  0  0  0  0  0  0  0
    2.7104   -4.6136    0.1116 N   0  0  0  0  0  0  0  0  0  0  0  0
    2.8285   -5.3629    1.2610 C   0  0  0  0  0  0  0  0  0  0  0  0
    2.0344   -5.2797    2.1993 O   0  0  0  0  0  0  0  0  0  0  0  0
    4.0729   -6.2713    1.3223 C   0  0  1  0  0  0  0  0  0  0  0  0
    4.2271   -7.1790    0.1050 C   0  0  0  0  0  0  0  0  0  0  0  0
    5.2700   -5.4994    1.6441 N   0  0  0  0  0  0  0  0  0  0  0  0
    5.8957   -4.6294    0.7750 C   0  0  0  0  0  0  0  0  0  0  0  0
    5.4655   -4.3730   -0.3478 O   0  0  0  0  0  0  0  0  0  0  0  0
    0.3792   -4.4381   -0.4891 C   0  0  0  0  0  0  0  0  0  0  0  0
    0.1589   -4.7497   -1.6612 O   0  0  0  0  0  0  0  0  0  0  0  0
   -0.4093   -4.8864    0.5509 N   0  0  0  0  0  0  0  0  0  0  0  0
   -1.6933   -5.5230    0.2746 C   0  0  1  0  0  0  0  0  0  0  0  0
   -2.1116   -6.4651    1.4143 C   0  0  0  0  0  0  0  0  0  0  0  0
   -2.9520   -7.6213    0.9199 C   0  0  0  0  0  0  0  0  0  0  0  0
   -4.3259   -7.6658    1.1753 C   0  0  0  0  0  0  0  0  0  0  0  0
   -5.1139   -8.6892    0.6538 C   0  0  0  0  0  0  0  0  0  0  0  0
   -4.5325   -9.6941   -0.1158 C   0  0  0  0  0  0  0  0  0  0  0  0
   -3.1630   -9.6685   -0.3661 C   0  0  0  0  0  0  0  0  0  0  0  0
   -2.3741   -8.6416    0.1510 C   0  0  0  0  0  0  0  0  0  0  0  0
   -2.7423   -4.4065    0.0472 C   0  0  0  0  0  0  0  0  0  0  0  0
   -2.6086   -3.2582    0.4723 O   0  0  0  0  0  0  0  0  0  0  0  0
   -3.8243   -4.7983   -0.7026 N   0  0  0  0  0  0  0  0  0  0  0  0
   -4.9441   -3.9066   -0.9919 C   0  0  1  0  0  0  0  0  0  0  0  0
   -5.4978   -4.1429   -2.4135 C   0  0  0  0  0  0  0  0  0  0  0  0
   -5.8958   -5.5766   -2.6998 C   0  0  0  0  0  0  0  0  0  0  0  0
   -7.1686   -6.0498   -2.3672 C   0  0  0  0  0  0  0  0  0  0  0  0
   -7.5072   -7.3871   -2.5875 C   0  0  0  0  0  0  0  0  0  0  0  0
   -6.5826   -8.2809   -3.1457 C   0  0  0  0  0  0  0  0  0  0  0  0
   -6.9072   -9.6287   -3.3647 C   0  0  0  0  0  0  0  0  0  0  0  0
   -5.9708  -10.5074   -3.9147 C   0  0  0  0  0  0  0  0  0  0  0  0
   -4.7018  -10.0490   -4.2496 C   0  0  0  0  0  0  0  0  0  0  0  0
   -4.3637   -8.7152   -4.0358 C   0  0  0  0  0  0  0  0  0  0  0  0
   -5.2926   -7.8166   -3.4858 C   0  0  0  0  0  0  0  0  0  0  0  0
   -4.9685   -6.4679   -3.2620 C   0  0  0  0  0  0  0  0  0  0  0  0
   -6.0579   -4.0840    0.0563 C   0  0  0  0  0  0  0  0  0  0  0  0
   -6.1567   -5.0706    0.7865 O   0  0  0  0  0  0  0  0  0  0  0  0
   -7.0169   -3.0837    0.0588 N   0  0  0  0  0  0  0  0  0  0  0  0
   -8.1413   -3.1847    0.9974 C   0  0  1  0  0  0  0  0  0  0  0  0
   -7.7327   -2.7842    2.4193 C   0  0  0  0  0  0  0  0  0  0  0  0
   -8.6565   -3.3012    3.5267 C   0  0  0  0  0  0  0  0  0  0  0  0
   -8.9701   -4.7986    3.4941 C   0  0  0  0  0  0  0  0  0  0  0  0
   -7.7714   -5.6233    3.4724 N   0  0  0  0  0  0  0  0  0  0  0  0
   -7.0833   -5.9170    4.5978 C   0  0  0  0  0  0  0  0  0  0  0  0
   -7.4312   -5.5756    5.7826 N   0  0  0  0  0  0  0  0  0  0  0  0
   -5.9932   -6.6615    4.3347 N   0  0  0  0  0  0  0  0  0  0  0  0
   -9.3388   -2.3893    0.4466 C   0  0  0  0  0  0  0  0  0  0  0  0
  -10.1084   -1.7377    1.1481 O   0  0  0  0  0  0  0  0  0  0  0  0
   -9.5406   -2.5791   -0.9064 N   0  0  0  0  0  0  0  0  0  0  0  0
  -10.6233   -1.9722   -1.6816 C   0  0  1  0  0  0  0  0  0  0  0  0
  -12.0410   -2.2303   -1.1441 C   0  0  0  0  0  0  0  0  0  0  0  0
  -12.4064   -3.7168   -1.1552 C   0  0  0  0  0  0  0  0  0  0  0  0
  -13.7841   -3.9577   -0.5360 C   0  0  0  0  0  0  0  0  0  0  0  0
  -14.1030   -5.3718   -0.5961 N   0  0  0  0  0  0  0  0  0  0  0  0
  -15.2497   -5.8941   -0.1179 C   0  0  0  0  0  0  0  0  0  0  0  0
  -16.3200   -5.2946    0.2517 N   0  0  0  0  0  0  0  0  0  0  0  0
  -15.1852   -7.2374   -0.0414 N   0  0  0  0  0  0  0  0  0  0  0  0
  -10.3659   -0.4679   -1.8766 C   0  0  0  0  0  0  0  0  0  0  0  0
  -10.1096    0.0115   -2.9791 O   0  0  0  0  0  0  0  0  0  0  0  0
  -10.4680    0.2835   -0.7291 N   0  0  0  0  0  0  0  0  0  0  0  0
  -10.1094    1.6893   -0.7075 C   0  0  1  0  0  0  0  0  0  0  0  0
  -11.1225    2.4661    0.1502 C   0  0  0  0  0  0  0  0  0  0  0  0
  -12.5809    2.3269   -0.3198 C   0  0  0  0  0  0  0  0  0  0  0  0
  -12.7860    2.7144   -1.7924 C   0  0  0  0  0  0  0  0  0  0  0  0
  -13.7620    3.7867   -1.8984 N   0  0  0  0  0  0  0  0  0  0  0  0
  -14.1437    4.2257   -3.1177 C   0  0  0  0  0  0  0  0  0  0  0  0
  -14.2908    3.4762   -4.1504 N   0  0  0  0  0  0  0  0  0  0  0  0
  -14.3523    5.5615   -3.1334 N   0  0  0  0  0  0  0  0  0  0  0  0
   -8.6206    1.8547   -0.2930 C   0  0  0  0  0  0  0  0  0  0  0  0
   -7.7818    0.9559   -0.4017 O   0  0  0  0  0  0  0  0  0  0  0  0
   -8.2805    3.1446    0.0523 N   0  0  0  0  0  0  0  0  0  0  0  0
   -6.9004    3.5650    0.2276 C   0  0  1  0  0  0  0  0  0  0  0  0
   -6.7872    5.0853    0.0157 C   0  0  0  0  0  0  0  0  0  0  0  0
   -7.2225    5.6170   -1.3636 C   0  0  0  0  0  0  0  0  0  0  0  0
   -8.7102    5.5457   -1.7444 C   0  0  0  0  0  0  0  0  0  0  0  0
   -9.5526    6.2443   -0.7921 N   0  0  0  0  0  0  0  0  0  0  0  0
  -10.8967    6.3610   -0.8870 C   0  0  0  0  0  0  0  0  0  0  0  0
  -11.6488    6.1636   -1.9052 N   0  0  0  0  0  0  0  0  0  0  0  0
  -11.4577    6.6904    0.2923 N   0  0  0  0  0  0  0  0  0  0  0  0
   -6.4568    3.2110    1.6712 C   0  0  0  0  0  0  0  0  0  0  0  0
   -7.2477    2.8495    2.5383 O   0  0  0  0  0  0  0  0  0  0  0  0
   -5.1275    3.4418    1.9484 N   0  0  0  0  0  0  0  0  0  0  0  0
   -4.5116    2.9163    3.1756 C   0  0  2  0  0  0  0  0  0  0  0  0
   -4.9234    3.7083    4.4450 C   0  0  0  0  0  0  0  0  0  0  0  0
   -4.6662    3.2986    5.5754 O   0  0  0  0  0  0  0  0  0  0  0  0
   -5.4166    4.9794    4.2166 N   0  0  0  0  0  0  0  0  0  0  0  0
   -5.7850    5.8376    5.3392 C   0  0  1  0  0  0  0  0  0  0  0  0
   -5.7282    7.3310    4.9659 C   0  0  0  0  0  0  0  0  0  0  0  0
   -6.4324    7.7865    3.6768 C   0  0  0  0  0  0  0  0  0  0  0  0
   -7.9395    7.5397    3.6584 C   0  0  0  0  0  0  0  0  0  0  0  0
   -8.6128    8.2254    2.4711 C   0  0  0  0  0  0  0  0  0  0  0  0
  -10.0482    7.9421    2.4595 N   0  0  0  0  0  0  0  0  0  0  0  0
   -7.1341    5.4454    5.9540 C   0  0  0  0  0  0  0  0  0  0  0  0
   -8.0423    4.8353    5.4133 O   0  0  0  0  0  0  0  0  0  0  0  0
   -7.2763    5.8949    7.2208 O   0  0  0  0  0  0  0  0  0  0  0  0
   -2.9674    3.0108    3.1502 C   0  0  0  0  0  0  0  0  0  0  0  0
   -2.2550    2.2431    2.1250 N   0  0  0  0  0  0  0  0  0  0  0  0
   -2.1729    2.7194    0.8291 C   0  0  0  0  0  0  0  0  0  0  0  0
   -3.0031    3.4767    0.3376 O   0  0  0  0  0  0  0  0  0  0  0  0
    6.1738   -2.0135    1.7048 H   0  0  0  0  0  0  0  0  0  0  0  0
    7.5366   -2.3284    2.7900 H   0  0  0  0  0  0  0  0  0  0  0  0
    5.9862   -3.1511    3.0512 H   0  0  0  0  0  0  0  0  0  0  0  0
    7.6998   -4.6704    1.9582 H   0  0  0  0  0  0  0  0  0  0  0  0
    7.5675   -3.1976   -0.5734 H   0  0  0  0  0  0  0  0  0  0  0  0
    9.4130   -1.7297   -1.0426 H   0  0  0  0  0  0  0  0  0  0  0  0
    9.4946   -4.0882   -1.9595 H   0  0  0  0  0  0  0  0  0  0  0  0
   10.6089   -2.9188   -2.6534 H   0  0  0  0  0  0  0  0  0  0  0  0
   11.6902   -5.0245   -2.4564 H   0  0  0  0  0  0  0  0  0  0  0  0
   12.5109   -3.8764   -1.4329 H   0  0  0  0  0  0  0  0  0  0  0  0
   11.6185   -4.8468    0.5893 H   0  0  0  0  0  0  0  0  0  0  0  0
   10.4228   -5.8109   -0.2847 H   0  0  0  0  0  0  0  0  0  0  0  0
   12.8503   -6.6695    0.4698 H   0  0  0  0  0  0  0  0  0  0  0  0
   11.2724   -8.6537   -2.4100 H   0  0  0  0  0  0  0  0  0  0  0  0
   13.2143   -9.1937   -1.7123 H   0  0  0  0  0  0  0  0  0  0  0  0
   14.0558   -8.1062   -0.7672 H   0  0  0  0  0  0  0  0  0  0  0  0
   11.8804   -2.3385    0.4987 H   0  0  0  0  0  0  0  0  0  0  0  0
   13.5454   -0.3251    0.0234 H   0  0  0  0  0  0  0  0  0  0  0  0
   11.7235    0.2618    2.4388 H   0  0  0  0  0  0  0  0  0  0  0  0
   13.3974    0.7714    2.4551 H   0  0  0  0  0  0  0  0  0  0  0  0
   11.2891   -1.8407    3.4538 H   0  0  0  0  0  0  0  0  0  0  0  0
   12.0073   -4.0597    4.1708 H   0  0  0  0  0  0  0  0  0  0  0  0
   13.7510   -5.8342    4.2834 H   0  0  0  0  0  0  0  0  0  0  0  0
   16.0384   -6.6080    3.7724 H   0  0  0  0  0  0  0  0  0  0  0  0
   17.6131   -5.1295    2.5538 H   0  0  0  0  0  0  0  0  0  0  0  0
   16.9030   -2.8798    1.8444 H   0  0  0  0  0  0  0  0  0  0  0  0
   15.1678   -1.1208    1.7237 H   0  0  0  0  0  0  0  0  0  0  0  0
   11.7929    2.0238   -0.0258 H   0  0  0  0  0  0  0  0  0  0  0  0
   13.4097    4.3496    0.2823 H   0  0  0  0  0  0  0  0  0  0  0  0
   15.4033    3.4496   -1.8217 H   0  0  0  0  0  0  0  0  0  0  0  0
   15.5884    4.6273   -0.5328 H   0  0  0  0  0  0  0  0  0  0  0  0
   15.4953    5.7270   -2.7700 H   0  0  0  0  0  0  0  0  0  0  0  0
   14.1483    6.2270   -1.7582 H   0  0  0  0  0  0  0  0  0  0  0  0
   14.1139    4.6603   -4.2961 H   0  0  0  0  0  0  0  0  0  0  0  0
   12.9178    5.7514   -3.6142 H   0  0  0  0  0  0  0  0  0  0  0  0
   13.3244    2.7789   -3.0635 H   0  0  0  0  0  0  0  0  0  0  0  0
   11.8685    3.6146   -3.5634 H   0  0  0  0  0  0  0  0  0  0  0  0
   10.3214    4.7922   -2.9186 H   0  0  0  0  0  0  0  0  0  0  0  0
    8.4751    3.1993   -2.9356 H   0  0  0  0  0  0  0  0  0  0  0  0
    8.0329    1.5886   -1.0886 H   0  0  0  0  0  0  0  0  0  0  0  0
    9.1653    2.4491   -0.0523 H   0  0  0  0  0  0  0  0  0  0  0  0
    7.6932    3.2612   -0.6111 H   0  0  0  0  0  0  0  0  0  0  0  0
   10.2970    1.4193   -1.8999 H   0  0  0  0  0  0  0  0  0  0  0  0
    9.3078    5.6390   -0.3807 H   0  0  0  0  0  0  0  0  0  0  0  0
    7.4243    7.8706   -1.4243 H   0  0  0  0  0  0  0  0  0  0  0  0
    6.0789    7.0064    0.7460 H   0  0  0  0  0  0  0  0  0  0  0  0
    7.0878    5.5838    0.5871 H   0  0  0  0  0  0  0  0  0  0  0  0
    8.9296    5.5906    2.0422 H   0  0  0  0  0  0  0  0  0  0  0  0
   10.6818    6.7922    3.3015 H   0  0  0  0  0  0  0  0  0  0  0  0
    9.3022   10.5317    1.7412 H   0  0  0  0  0  0  0  0  0  0  0  0
    7.5300    9.3700    0.4583 H   0  0  0  0  0  0  0  0  0  0  0  0
    5.5905    7.3253   -2.6216 H   0  0  0  0  0  0  0  0  0  0  0  0
    3.0827    6.4939   -2.2591 H   0  0  0  0  0  0  0  0  0  0  0  0
    4.7506    4.7049   -4.1359 H   0  0  0  0  0  0  0  0  0  0  0  0
    3.0550    4.9740   -4.4769 H   0  0  0  0  0  0  0  0  0  0  0  0
    2.2409    7.5284   -4.4540 H   0  0  0  0  0  0  0  0  0  0  0  0
    2.7553    9.6521   -5.6039 H   0  0  0  0  0  0  0  0  0  0  0  0
    5.0216   10.0600   -6.5271 H   0  0  0  0  0  0  0  0  0  0  0  0
    6.7751    8.3162   -6.3156 H   0  0  0  0  0  0  0  0  0  0  0  0
    6.2846    6.1909   -5.1753 H   0  0  0  0  0  0  0  0  0  0  0  0
    3.4556    3.7942   -1.3894 H   0  0  0  0  0  0  0  0  0  0  0  0
   -0.8299    4.3944   -0.7103 H   0  0  0  0  0  0  0  0  0  0  0  0
   -0.7427    0.3178    0.7389 H   0  0  0  0  0  0  0  0  0  0  0  0
    2.5209    1.8359   -1.6120 H   0  0  0  0  0  0  0  0  0  0  0  0
    0.3351   -1.2767   -1.5671 H   0  0  0  0  0  0  0  0  0  0  0  0
    1.7893   -2.9840   -2.1632 H   0  0  0  0  0  0  0  0  0  0  0  0
    3.0234   -2.3423   -1.0891 H   0  0  0  0  0  0  0  0  0  0  0  0
    1.4441   -3.1448    0.8986 H   0  0  0  0  0  0  0  0  0  0  0  0
    3.5622   -4.4934   -0.4376 H   0  0  0  0  0  0  0  0  0  0  0  0
    3.9212   -6.9290    2.1871 H   0  0  0  0  0  0  0  0  0  0  0  0
    5.0916   -7.8411    0.2248 H   0  0  0  0  0  0  0  0  0  0  0  0
    3.3334   -7.8010   -0.0231 H   0  0  0  0  0  0  0  0  0  0  0  0
    4.3654   -6.6188   -0.8235 H   0  0  0  0  0  0  0  0  0  0  0  0
    5.6336   -5.5913    2.5846 H   0  0  0  0  0  0  0  0  0  0  0  0
   -0.2684   -4.4565    1.4631 H   0  0  0  0  0  0  0  0  0  0  0  0
   -1.5898   -6.0714   -0.6714 H   0  0  0  0  0  0  0  0  0  0  0  0
   -2.6463   -5.9128    2.1978 H   0  0  0  0  0  0  0  0  0  0  0  0
   -1.2246   -6.8889    1.9026 H   0  0  0  0  0  0  0  0  0  0  0  0
   -4.7954   -6.8791    1.7613 H   0  0  0  0  0  0  0  0  0  0  0  0
   -6.1845   -8.6958    0.8329 H   0  0  0  0  0  0  0  0  0  0  0  0
   -5.1487  -10.4820   -0.5396 H   0  0  0  0  0  0  0  0  0  0  0  0
   -2.7119  -10.4454   -0.9789 H   0  0  0  0  0  0  0  0  0  0  0  0
   -1.3057   -8.6364   -0.0606 H   0  0  0  0  0  0  0  0  0  0  0  0
   -4.0200   -5.7922   -0.7619 H   0  0  0  0  0  0  0  0  0  0  0  0
   -4.5964   -2.8693   -0.9220 H   0  0  0  0  0  0  0  0  0  0  0  0
   -4.7335   -3.8425   -3.1441 H   0  0  0  0  0  0  0  0  0  0  0  0
   -6.3618   -3.4910   -2.6051 H   0  0  0  0  0  0  0  0  0  0  0  0
   -7.9098   -5.3888   -1.9252 H   0  0  0  0  0  0  0  0  0  0  0  0
   -8.5009   -7.7282   -2.3089 H   0  0  0  0  0  0  0  0  0  0  0  0
   -7.8952  -10.0050   -3.1119 H   0  0  0  0  0  0  0  0  0  0  0  0
   -6.2379  -11.5473   -4.0846 H   0  0  0  0  0  0  0  0  0  0  0  0
   -3.9732  -10.7316   -4.6784 H   0  0  0  0  0  0  0  0  0  0  0  0
   -3.3642   -8.3744   -4.3002 H   0  0  0  0  0  0  0  0  0  0  0  0
   -3.9703   -6.1096   -3.5174 H   0  0  0  0  0  0  0  0  0  0  0  0
   -6.7420   -2.1464   -0.2323 H   0  0  0  0  0  0  0  0  0  0  0  0
   -8.4541   -4.2338    0.9708 H   0  0  0  0  0  0  0  0  0  0  0  0
   -7.6692   -1.6904    2.4948 H   0  0  0  0  0  0  0  0  0  0  0  0
   -6.7184   -3.1495    2.6277 H   0  0  0  0  0  0  0  0  0  0  0  0
   -8.1965   -3.0550    4.4897 H   0  0  0  0  0  0  0  0  0  0  0  0
   -9.6060   -2.7547    3.4927 H   0  0  0  0  0  0  0  0  0  0  0  0
   -9.6027   -5.0651    4.3508 H   0  0  0  0  0  0  0  0  0  0  0  0
   -9.5740   -5.0429    2.6104 H   0  0  0  0  0  0  0  0  0  0  0  0
   -7.1892   -5.5215    2.6413 H   0  0  0  0  0  0  0  0  0  0  0  0
   -6.7417   -5.9112    6.4553 H   0  0  0  0  0  0  0  0  0  0  0  0
   -5.5877   -7.1214    5.1395 H   0  0  0  0  0  0  0  0  0  0  0  0
   -6.1666   -7.3382    3.5985 H   0  0  0  0  0  0  0  0  0  0  0  0
   -8.7384   -2.9126   -1.4266 H   0  0  0  0  0  0  0  0  0  0  0  0
  -10.5474   -2.4261   -2.6788 H   0  0  0  0  0  0  0  0  0  0  0  0
  -12.7637   -1.6822   -1.7626 H   0  0  0  0  0  0  0  0  0  0  0  0
  -12.1635   -1.8342   -0.1300 H   0  0  0  0  0  0  0  0  0  0  0  0
  -11.6550   -4.2938   -0.6003 H   0  0  0  0  0  0  0  0  0  0  0  0
  -12.3954   -4.0903   -2.1900 H   0  0  0  0  0  0  0  0  0  0  0  0
  -14.5393   -3.3838   -1.0881 H   0  0  0  0  0  0  0  0  0  0  0  0
  -13.7873   -3.6190    0.5063 H   0  0  0  0  0  0  0  0  0  0  0  0
  -13.3130   -5.9655   -0.3580 H   0  0  0  0  0  0  0  0  0  0  0  0
  -16.2064   -4.2899    0.1215 H   0  0  0  0  0  0  0  0  0  0  0  0
  -14.8546   -7.6464   -0.9055 H   0  0  0  0  0  0  0  0  0  0  0  0
  -16.1078   -7.6014    0.1786 H   0  0  0  0  0  0  0  0  0  0  0  0
  -10.3974   -0.2296    0.1567 H   0  0  0  0  0  0  0  0  0  0  0  0
  -10.1368    2.0703   -1.7340 H   0  0  0  0  0  0  0  0  0  0  0  0
  -11.0552    2.1329    1.1953 H   0  0  0  0  0  0  0  0  0  0  0  0
  -10.8837    3.5356    0.1447 H   0  0  0  0  0  0  0  0  0  0  0  0
  -13.2099    2.9390    0.3427 H   0  0  0  0  0  0  0  0  0  0  0  0
  -12.9135    1.2927   -0.1724 H   0  0  0  0  0  0  0  0  0  0  0  0
  -11.8579    3.0811   -2.2465 H   0  0  0  0  0  0  0  0  0  0  0  0
  -13.1109    1.8319   -2.3600 H   0  0  0  0  0  0  0  0  0  0  0  0
  -13.5794    4.5484   -1.2498 H   0  0  0  0  0  0  0  0  0  0  0  0
  -14.6181    4.0342   -4.9369 H   0  0  0  0  0  0  0  0  0  0  0  0
  -13.6043    6.0641   -2.6376 H   0  0  0  0  0  0  0  0  0  0  0  0
  -14.4525    5.9482   -4.0600 H   0  0  0  0  0  0  0  0  0  0  0  0
   -8.9475    3.6140    0.6540 H   0  0  0  0  0  0  0  0  0  0  0  0
   -6.2648    3.0240   -0.4812 H   0  0  0  0  0  0  0  0  0  0  0  0
   -5.7359    5.3763    0.1529 H   0  0  0  0  0  0  0  0  0  0  0  0
   -7.3326    5.6147    0.8056 H   0  0  0  0  0  0  0  0  0  0  0  0
   -6.6427    5.0943   -2.1353 H   0  0  0  0  0  0  0  0  0  0  0  0
   -6.9155    6.6710   -1.4119 H   0  0  0  0  0  0  0  0  0  0  0  0
   -8.8210    6.0192   -2.7301 H   0  0  0  0  0  0  0  0  0  0  0  0
   -9.0418    4.5103   -1.8633 H   0  0  0  0  0  0  0  0  0  0  0  0
   -9.2438    6.2066    0.1714 H   0  0  0  0  0  0  0  0  0  0  0  0
  -11.0555    5.9068   -2.6999 H   0  0  0  0  0  0  0  0  0  0  0  0
  -10.9469    7.4065    0.8212 H   0  0  0  0  0  0  0  0  0  0  0  0
  -12.4227    6.9788    0.1676 H   0  0  0  0  0  0  0  0  0  0  0  0
   -4.4940    3.4965    1.1420 H   0  0  0  0  0  0  0  0  0  0  0  0
   -4.8386    1.8756    3.2992 H   0  0  0  0  0  0  0  0  0  0  0  0
   -5.9702    5.0435    3.3701 H   0  0  0  0  0  0  0  0  0  0  0  0
   -5.0361    5.6669    6.1290 H   0  0  0  0  0  0  0  0  0  0  0  0
   -4.6687    7.6061    4.8585 H   0  0  0  0  0  0  0  0  0  0  0  0
   -6.1148    7.9290    5.8013 H   0  0  0  0  0  0  0  0  0  0  0  0
   -5.9682    7.3090    2.8061 H   0  0  0  0  0  0  0  0  0  0  0  0
   -6.2472    8.8634    3.5650 H   0  0  0  0  0  0  0  0  0  0  0  0
   -8.1264    6.4647    3.5847 H   0  0  0  0  0  0  0  0  0  0  0  0
   -8.3844    7.8981    4.5939 H   0  0  0  0  0  0  0  0  0  0  0  0
   -8.4583    9.3090    2.5095 H   0  0  0  0  0  0  0  0  0  0  0  0
   -8.1758    7.8662    1.5343 H   0  0  0  0  0  0  0  0  0  0  0  0
  -10.2074    6.9746    2.7622 H   0  0  0  0  0  0  0  0  0  0  0  0
  -10.4908    8.5005    3.1948 H   0  0  0  0  0  0  0  0  0  0  0  0
   -8.1304    5.5075    7.5136 H   0  0  0  0  0  0  0  0  0  0  0  0
   -2.6593    4.0597    3.0444 H   0  0  0  0  0  0  0  0  0  0  0  0
   -2.5671    2.6590    4.1101 H   0  0  0  0  0  0  0  0  0  0  0  0
   -1.4422    1.7568    2.4774 H   0  0  0  0  0  0  0  0  0  0  0  0
  1  2  1  0
  2  3  1  0
  3  4  1  0
  4  5  2  0
  4  6  1  0
  6  7  1  0
  7  8  1  0
  8  9  1  0
  9 10  1  0
 10 11  1  0
 11 12  2  3
 11 13  1  0
  6 14  1  0
 14 15  1  0
 15 16  2  0
 15 17  1  0
 17 18  1  0
 18 19  1  0
 19 20  1  0
 20 21  2  0
 21 22  1  0
 22 23  2  0
 23 24  1  0
 24 25  2  0
 25 26  1  0
 26 27  2  0
 27 28  1  0
 17 29  1  0
 29 30  1  0
 30 31  2  0
 30 32  1  0
 32 33  1  0
 33 34  1  0
 34 35  1  0
 35 36  1  0
 36 37  1  0
 37 38  1  0
 38 39  2  0
 38 40  1  0
 40 41  1  0
 41 42  1  0
 41 43  1  0
 40 44  1  0
 44 45  1  0
 45 46  2  0
 45 47  1  0
 47 48  1  0
 48 49  1  0
 49 50  1  0
 50 51  2  0
 51 52  1  0
 52 53  1  0
 52 54  2  0
 54 55  1  0
 47 56  1  0
 56 57  1  0
 57 58  2  0
 57 59  1  0
 59 60  1  0
 60 61  1  0
 61 62  2  0
 62 63  1  0
 63 64  2  0
 64 65  1  0
 65 66  2  0
 59 67  1  0
 67 68  1  0
 68 69  2  0
 68 70  1  0
 70 71  1  0
 71 72  2  0
 72 73  1  0
 73 74  2  0
 74 75  1  0
 74 76  1  0
 76 77  2  0
 76 78  1  0
 78 79  1  0
 79 80  1  0
 80 81  1  0
 81 82  1  0
 82 83  2  0
 82 84  1  0
 84 85  1  0
 84 86  1  0
 86 87  1  0
 87 88  2  0
 80 89  1  0
 89 90  2  0
 89 91  1  0
 91 92  1  0
 92 93  1  0
 93 94  1  0
 94 95  2  0
 95 96  1  0
 96 97  2  0
 97 98  1  0
 98 99  2  0
 92100  1  0
100101  2  0
100102  1  0
102103  1  0
103104  1  0
104105  1  0
105106  1  0
106107  2  0
107108  1  0
108109  2  0
109110  1  0
110111  2  0
111112  1  0
112113  2  0
113114  1  0
103115  1  0
115116  2  0
115117  1  0
117118  1  0
118119  1  0
119120  1  0
120121  1  0
121122  1  0
122123  1  0
123124  2  3
123125  1  0
118126  1  0
126127  2  0
126128  1  0
128129  1  0
129130  1  0
130131  1  0
131132  1  0
132133  1  0
133134  1  0
134135  2  3
134136  1  0
129137  1  0
137138  2  0
137139  1  0
139140  1  0
140141  1  0
141142  1  0
142143  1  0
143144  1  0
144145  1  0
145146  2  3
145147  1  0
140148  1  0
148149  2  0
148150  1  0
150151  1  0
151152  1  0
152153  1  0
153154  1  0
154155  1  0
155156  1  0
156157  2  3
156158  1  0
151159  1  0
159160  2  0
159161  1  0
161162  1  0
162163  1  0
163164  2  0
163165  1  0
165166  1  0
166167  1  0
167168  1  0
168169  1  0
169170  1  0
170171  1  0
166172  1  0
172173  2  0
172174  1  0
162175  1  0
175176  1  0
176177  1  0
177178  2  0
 87  2  1  0
 99 94  1  0
114105  2  0
 28 19  2  0
 37 32  1  0
 55 49  2  0
 66 61  1  0
 75 70  2  0
113108  1  0
 27 22  1  0
177 72  1  0
  1179  1  0
  1180  1  0
  1181  1  0
  2182  1  1
  3183  1  0
  6184  1  6
  7185  1  0
  7186  1  0
  8187  1  0
  8188  1  0
  9189  1  0
  9190  1  0
 10191  1  0
 12192  1  0
 13193  1  0
 13194  1  0
 14195  1  0
 17196  1  6
 18197  1  0
 18198  1  0
 20199  1  0
 21200  1  0
 23201  1  0
 24202  1  0
 25203  1  0
 26204  1  0
 28205  1  0
 29206  1  0
 32207  1  1
 33208  1  0
 33209  1  0
 34210  1  0
 34211  1  0
 35212  1  0
 35213  1  0
 36214  1  0
 36215  1  0
 40216  1  6
 41217  1  6
 42218  1  0
 42219  1  0
 42220  1  0
 43221  1  0
 44222  1  0
 47223  1  1
 48224  1  0
 48225  1  0
 50226  1  0
 51227  1  0
 54228  1  0
 55229  1  0
 56230  1  0
 59231  1  6
 60232  1  0
 60233  1  0
 62234  1  0
 63235  1  0
 64236  1  0
 65237  1  0
 66238  1  0
 67239  1  0
 71240  1  0
 73241  1  0
 75242  1  0
 78243  1  0
 79244  1  0
 79245  1  0
 80246  1  1
 81247  1  0
 84248  1  1
 85249  1  0
 85250  1  0
 85251  1  0
 86252  1  0
 91253  1  0
 92254  1  6
 93255  1  0
 93256  1  0
 95257  1  0
 96258  1  0
 97259  1  0
 98260  1  0
 99261  1  0
102262  1  0
103263  1  6
104264  1  0
104265  1  0
106266  1  0
107267  1  0
109268  1  0
110269  1  0
111270  1  0
112271  1  0
114272  1  0
117273  1  0
118274  1  1
119275  1  0
119276  1  0
120277  1  0
120278  1  0
121279  1  0
121280  1  0
122281  1  0
124282  1  0
125283  1  0
125284  1  0
128285  1  0
129286  1  6
130287  1  0
130288  1  0
131289  1  0
131290  1  0
132291  1  0
132292  1  0
133293  1  0
135294  1  0
136295  1  0
136296  1  0
139297  1  0
140298  1  6
141299  1  0
141300  1  0
142301  1  0
142302  1  0
143303  1  0
143304  1  0
144305  1  0
146306  1  0
147307  1  0
147308  1  0
150309  1  0
151310  1  6
152311  1  0
152312  1  0
153313  1  0
153314  1  0
154315  1  0
154316  1  0
155317  1  0
157318  1  0
158319  1  0
158320  1  0
161321  1  0
162322  1  1
165323  1  0
166324  1  1
167325  1  0
167326  1  0
168327  1  0
168328  1  0
169329  1  0
169330  1  0
170331  1  0
170332  1  0
171333  1  0
171334  1  0
174335  1  0
175336  1  0
175337  1  0
176338  1  0
M  END
$$$$
