
     RDKit          3D

114117  0  0  0  0  0  0  0  0999 V2000
    0.7003   -3.4463   -1.3677 C   0  0  0  0  0  0  0  0  0  0  0  0
    1.2122   -3.7140    0.0483 C   0  0  1  0  0  0  0  0  0  0  0  0
    2.3641   -2.8735    0.3414 N   0  0  0  0  0  0  0  0  0  0  0  0
    3.6232   -3.2068   -0.0948 C   0  0  0  0  0  0  0  0  0  0  0  0
    3.8820   -4.3003   -0.5973 O   0  0  0  0  0  0  0  0  0  0  0  0
    4.7194   -2.1386    0.0759 C   0  0  2  0  0  0  0  0  0  0  0  0
    5.0394   -1.8039    1.5349 C   0  0  0  0  0  0  0  0  0  0  0  0
    5.7210   -2.9712    2.2528 C   0  0  0  0  0  0  0  0  0  0  0  0
    6.1735   -2.5843    3.6450 C   0  0  0  0  0  0  0  0  0  0  0  0
    6.6994   -3.6201    4.3635 N   0  0  0  0  0  0  0  0  0  0  0  0
    6.1047   -1.4553    4.1205 O   0  0  0  0  0  0  0  0  0  0  0  0
    4.4063   -0.9775   -0.7614 N   0  0  0  0  0  0  0  0  0  0  0  0
    3.4677   -0.0295   -0.4192 C   0  0  0  0  0  0  0  0  0  0  0  0
    2.8869   -0.0434    0.6669 O   0  0  0  0  0  0  0  0  0  0  0  0
    3.2086    1.0420   -1.5007 C   0  0  2  0  0  0  0  0  0  0  0  0
    4.4323    1.9558   -1.6291 C   0  0  0  0  0  0  0  0  0  0  0  0
    4.3049    3.0569   -2.6937 C   0  0  0  0  0  0  0  0  0  0  0  0
    4.0524    2.5167   -4.1051 C   0  0  0  0  0  0  0  0  0  0  0  0
    4.1336    3.5697   -5.1079 N   0  0  0  0  0  0  0  0  0  0  0  0
    2.0163    1.8010   -1.1484 N   0  0  0  0  0  0  0  0  0  0  0  0
    0.7751    1.2286   -1.3545 C   0  0  0  0  0  0  0  0  0  0  0  0
    0.6421    0.1832   -1.9970 O   0  0  0  0  0  0  0  0  0  0  0  0
   -0.4140    1.9932   -0.7339 C   0  0  2  0  0  0  0  0  0  0  0  0
   -0.4555    1.9260    0.8071 C   0  0  0  0  0  0  0  0  0  0  0  0
    0.5421    2.8226    1.5070 C   0  0  0  0  0  0  0  0  0  0  0  0
    1.5027    2.2693    2.3605 C   0  0  0  0  0  0  0  0  0  0  0  0
    2.4780    3.0751    2.9462 C   0  0  0  0  0  0  0  0  0  0  0  0
    2.4997    4.4543    2.7149 C   0  0  0  0  0  0  0  0  0  0  0  0
    3.4876    5.2717    3.2841 C   0  0  0  0  0  0  0  0  0  0  0  0
    3.4966    6.6446    3.0411 C   0  0  0  0  0  0  0  0  0  0  0  0
    2.5263    7.2169    2.2218 C   0  0  0  0  0  0  0  0  0  0  0  0
    1.5366    6.4162    1.6472 C   0  0  0  0  0  0  0  0  0  0  0  0
    1.5090    5.0326    1.8880 C   0  0  0  0  0  0  0  0  0  0  0  0
    0.5319    4.2097    1.3034 C   0  0  0  0  0  0  0  0  0  0  0  0
   -1.6245    1.4101   -1.2984 N   0  0  0  0  0  0  0  0  0  0  0  0
   -2.8092    2.0914   -1.4096 C   0  0  0  0  0  0  0  0  0  0  0  0
   -2.9229    3.2634   -1.0710 O   0  0  0  0  0  0  0  0  0  0  0  0
   -3.9620    1.2317   -1.9798 C   0  0  2  0  0  0  0  0  0  0  0  0
   -5.1518    2.0764   -2.4512 C   0  0  0  0  0  0  0  0  0  0  0  0
   -5.9755    2.6993   -1.3258 C   0  0  0  0  0  0  0  0  0  0  0  0
   -5.8284    1.9550   -0.0012 C   0  0  0  0  0  0  0  0  0  0  0  0
   -5.5806    0.4675   -0.2039 C   0  0  0  0  0  0  0  0  0  0  0  0
   -4.3944    0.1880   -1.0177 N   0  0  0  0  0  0  0  0  0  0  0  0
   -3.6729   -0.9964   -0.9460 C   0  0  0  0  0  0  0  0  0  0  0  0
   -2.5834   -1.1176   -1.5193 O   0  0  0  0  0  0  0  0  0  0  0  0
   -4.2744   -2.2044   -0.1950 C   0  0  1  0  0  0  0  0  0  0  0  0
   -5.2139   -2.9931   -1.1432 C   0  0  1  0  0  0  0  0  0  0  0  0
   -4.4864   -3.5863   -2.3542 C   0  0  0  0  0  0  0  0  0  0  0  0
   -5.8152   -4.0773   -0.4446 O   0  0  0  0  0  0  0  0  0  0  0  0
   -7.1904   -3.8711    0.3393 P   0  0  0  0  0  0  0  0  0  0  0  0
   -8.4133   -4.3105   -0.3827 O   0  0  0  0  0  0  0  0  0  0  0  0
   -7.2468   -2.3380    0.7838 O   0  0  0  0  0  0  0  0  0  0  0  0
   -6.9067   -4.5891    1.7288 O   0  0  0  0  0  0  0  0  0  0  0  0
   -3.1849   -3.0287    0.3339 N   0  0  0  0  0  0  0  0  0  0  0  0
   -3.3163   -3.7904    1.4708 C   0  0  0  0  0  0  0  0  0  0  0  0
   -4.3800   -3.9082    2.0787 O   0  0  0  0  0  0  0  0  0  0  0  0
   -2.0301   -4.4693    1.9584 C   0  0  0  0  0  0  0  0  0  0  0  0
   -0.9293   -4.4495    1.0057 N   0  0  0  0  0  0  0  0  0  0  0  0
    0.0724   -3.4926    1.0665 C   0  0  0  0  0  0  0  0  0  0  0  0
    0.0337   -2.5454    1.8450 O   0  0  0  0  0  0  0  0  0  0  0  0
    1.4953   -3.5675   -2.1113 H   0  0  0  0  0  0  0  0  0  0  0  0
   -0.1181   -4.1248   -1.6338 H   0  0  0  0  0  0  0  0  0  0  0  0
    0.3210   -2.4218   -1.4484 H   0  0  0  0  0  0  0  0  0  0  0  0
    1.5378   -4.7599    0.1253 H   0  0  0  0  0  0  0  0  0  0  0  0
    2.1934   -1.9348    0.7085 H   0  0  0  0  0  0  0  0  0  0  0  0
    5.6272   -2.5545   -0.3816 H   0  0  0  0  0  0  0  0  0  0  0  0
    5.7019   -0.9290    1.5694 H   0  0  0  0  0  0  0  0  0  0  0  0
    4.1398   -1.5363    2.0964 H   0  0  0  0  0  0  0  0  0  0  0  0
    5.0270   -3.8165    2.3400 H   0  0  0  0  0  0  0  0  0  0  0  0
    6.6047   -3.3015    1.6918 H   0  0  0  0  0  0  0  0  0  0  0  0
    6.5559   -4.5837    4.0931 H   0  0  0  0  0  0  0  0  0  0  0  0
    6.9320   -3.4286    5.3296 H   0  0  0  0  0  0  0  0  0  0  0  0
    4.6214   -1.0744   -1.7465 H   0  0  0  0  0  0  0  0  0  0  0  0
    3.0225    0.5131   -2.4393 H   0  0  0  0  0  0  0  0  0  0  0  0
    4.6241    2.4342   -0.6591 H   0  0  0  0  0  0  0  0  0  0  0  0
    5.3228    1.3560   -1.8467 H   0  0  0  0  0  0  0  0  0  0  0  0
    3.5058    3.7517   -2.4133 H   0  0  0  0  0  0  0  0  0  0  0  0
    5.2393    3.6356   -2.6829 H   0  0  0  0  0  0  0  0  0  0  0  0
    3.0632    2.0475   -4.1750 H   0  0  0  0  0  0  0  0  0  0  0  0
    4.7972    1.7495   -4.3507 H   0  0  0  0  0  0  0  0  0  0  0  0
    5.0519    4.0037   -5.0787 H   0  0  0  0  0  0  0  0  0  0  0  0
    3.4705    4.3155   -4.8947 H   0  0  0  0  0  0  0  0  0  0  0  0
    2.0992    2.4218   -0.3515 H   0  0  0  0  0  0  0  0  0  0  0  0
   -0.3553    3.0257   -1.0882 H   0  0  0  0  0  0  0  0  0  0  0  0
   -1.4481    2.2214    1.1698 H   0  0  0  0  0  0  0  0  0  0  0  0
   -0.3131    0.8877    1.1343 H   0  0  0  0  0  0  0  0  0  0  0  0
    1.5166    1.1974    2.5598 H   0  0  0  0  0  0  0  0  0  0  0  0
    3.2171    2.6037    3.5918 H   0  0  0  0  0  0  0  0  0  0  0  0
    4.2581    4.8419    3.9204 H   0  0  0  0  0  0  0  0  0  0  0  0
    4.2653    7.2649    3.4932 H   0  0  0  0  0  0  0  0  0  0  0  0
    2.5318    8.2873    2.0397 H   0  0  0  0  0  0  0  0  0  0  0  0
    0.7895    6.8797    1.0062 H   0  0  0  0  0  0  0  0  0  0  0  0
   -0.2438    4.6527    0.6824 H   0  0  0  0  0  0  0  0  0  0  0  0
   -1.5957    0.4146   -1.5424 H   0  0  0  0  0  0  0  0  0  0  0  0
   -3.5482    0.7304   -2.8644 H   0  0  0  0  0  0  0  0  0  0  0  0
   -5.8235    1.4241   -3.0220 H   0  0  0  0  0  0  0  0  0  0  0  0
   -4.8312    2.8646   -3.1427 H   0  0  0  0  0  0  0  0  0  0  0  0
   -5.6764    3.7434   -1.1765 H   0  0  0  0  0  0  0  0  0  0  0  0
   -7.0339    2.7232   -1.6231 H   0  0  0  0  0  0  0  0  0  0  0  0
   -4.9765    2.3690    0.5546 H   0  0  0  0  0  0  0  0  0  0  0  0
   -6.7190    2.1187    0.6184 H   0  0  0  0  0  0  0  0  0  0  0  0
   -5.4696    0.0077    0.7815 H   0  0  0  0  0  0  0  0  0  0  0  0
   -6.4336   -0.0026   -0.7035 H   0  0  0  0  0  0  0  0  0  0  0  0
   -4.8191   -1.8721    0.6861 H   0  0  0  0  0  0  0  0  0  0  0  0
   -6.0030   -2.3361   -1.5232 H   0  0  0  0  0  0  0  0  0  0  0  0
   -3.7172   -4.3090   -2.0568 H   0  0  0  0  0  0  0  0  0  0  0  0
   -5.1936   -4.1347   -2.9844 H   0  0  0  0  0  0  0  0  0  0  0  0
   -4.0292   -2.8100   -2.9746 H   0  0  0  0  0  0  0  0  0  0  0  0
   -8.1299   -2.1589    1.1478 H   0  0  0  0  0  0  0  0  0  0  0  0
   -6.0131   -4.3307    2.0672 H   0  0  0  0  0  0  0  0  0  0  0  0
   -2.2535   -2.8699   -0.0387 H   0  0  0  0  0  0  0  0  0  0  0  0
   -1.7234   -4.0047    2.8984 H   0  0  0  0  0  0  0  0  0  0  0  0
   -2.2637   -5.5209    2.1356 H   0  0  0  0  0  0  0  0  0  0  0  0
   -0.8196   -5.2407    0.3857 H   0  0  0  0  0  0  0  0  0  0  0  0
  1  2  1  0
  2  3  1  0
  3  4  1  0
  4  5  2  0
  4  6  1  0
  6  7  1  0
  7  8  1  0
  8  9  1  0
  9 10  1  0
  9 11  2  0
  6 12  1  0
 12 13  1  0
 13 14  2  0
 13 15  1  0
 15 16  1  0
 16 17  1  0
 17 18  1  0
 18 19  1  0
 15 20  1  0
 20 21  1  0
 21 22  2  0
 21 23  1  0
 23 24  1  0
 24 25  1  0
 25 26  1  0
 26 27  2  0
 27 28  1  0
 28 29  2  0
 29 30  1  0
 30 31  2  0
 31 32  1  0
 32 33  2  0
 33 34  1  0
 23 35  1  0
 35 36  1  0
 36 37  2  0
 36 38  1  0
 38 39  1  0
 39 40  1  0
 40 41  1  0
 41 42  1  0
 42 43  1  0
 43 44  1  0
 44 45  2  0
 44 46  1  0
 46 47  1  0
 47 48  1  0
 47 49  1  0
 49 50  1  0
 50 51  2  0
 50 52  1  0
 50 53  1  0
 46 54  1  0
 54 55  1  0
 55 56  2  0
 55 57  1  0
 57 58  1  0
 58 59  1  0
 59 60  2  0
 59  2  1  0
 34 25  2  0
 43 38  1  0
 33 28  1  0
  1 61  1  0
  1 62  1  0
  1 63  1  0
  2 64  1  6
  3 65  1  0
  6 66  1  6
  7 67  1  0
  7 68  1  0
  8 69  1  0
  8 70  1  0
 10 71  1  0
 10 72  1  0
 12 73  1  0
 15 74  1  6
 16 75  1  0
 16 76  1  0
 17 77  1  0
 17 78  1  0
 18 79  1  0
 18 80  1  0
 19 81  1  0
 19 82  1  0
 20 83  1  0
 23 84  1  1
 24 85  1  0
 24 86  1  0
 26 87  1  0
 27 88  1  0
 29 89  1  0
 30 90  1  0
 31 91  1  0
 32 92  1  0
 34 93  1  0
 35 94  1  0
 38 95  1  6
 39 96  1  0
 39 97  1  0
 40 98  1  0
 40 99  1  0
 41100  1  0
 41101  1  0
 42102  1  0
 42103  1  0
 46104  1  1
 47105  1  6
 48106  1  0
 48107  1  0
 48108  1  0
 52109  1  0
 53110  1  0
 54111  1  0
 57112  1  0
 57113  1  0
 58114  1  0
M  END
$$$$
