
     RDKit          3D

108111  0  0  0  0  0  0  0  0999 V2000
   -7.5953   -1.4765    2.2279 C   0  0  0  0  0  0  0  0  0  0  0  0
   -7.1763   -2.0678    0.9039 C   0  0  0  0  0  0  0  0  0  0  0  0
   -7.1613   -3.2889    0.6852 O   0  0  0  0  0  0  0  0  0  0  0  0
   -6.8422   -1.1147   -0.0320 N   0  0  0  0  0  0  0  0  0  0  0  0
   -6.4323   -1.4748   -1.3978 C   0  0  1  0  0  0  0  0  0  0  0  0
   -7.1144   -0.5918   -2.4594 C   0  0  0  0  0  0  0  0  0  0  0  0
   -6.9524    0.9000   -2.2614 C   0  0  0  0  0  0  0  0  0  0  0  0
   -7.9725    1.6470   -1.6494 C   0  0  0  0  0  0  0  0  0  0  0  0
   -7.8270    3.0202   -1.4587 C   0  0  0  0  0  0  0  0  0  0  0  0
   -6.6568    3.6582   -1.8649 C   0  0  0  0  0  0  0  0  0  0  0  0
   -5.6330    2.9233   -2.4689 C   0  0  0  0  0  0  0  0  0  0  0  0
   -5.7855    1.5531   -2.6804 C   0  0  0  0  0  0  0  0  0  0  0  0
   -4.9037   -1.5195   -1.5958 C   0  0  0  0  0  0  0  0  0  0  0  0
   -4.3699   -1.5653   -2.7025 O   0  0  0  0  0  0  0  0  0  0  0  0
   -4.1795   -1.6133   -0.4279 N   0  0  0  0  0  0  0  0  0  0  0  0
   -2.7172   -1.6488   -0.4524 C   0  0  1  0  0  0  0  0  0  0  0  0
   -2.2064   -0.1906   -0.5420 C   0  0  0  0  0  0  0  0  0  0  0  0
   -2.6609    0.6492    0.2515 O   0  0  0  0  0  0  0  0  0  0  0  0
   -1.2397    0.1737   -1.4775 N   0  0  0  0  0  0  0  0  0  0  0  0
   -0.6671   -0.6990   -2.5122 C   0  0  0  0  0  0  0  0  0  0  0  0
   -1.0783   -0.2296   -3.9073 C   0  0  0  0  0  0  0  0  0  0  0  0
   -0.6982    1.2330   -4.1274 C   0  0  0  0  0  0  0  0  0  0  0  0
   -1.2962    2.1146   -3.0363 C   0  0  0  0  0  0  0  0  0  0  0  0
   -0.9206    1.6174   -1.6287 C   0  0  2  0  0  0  0  0  0  0  0  0
    0.5328    1.9843   -1.2428 C   0  0  0  0  0  0  0  0  0  0  0  0
    1.0762    3.0373   -1.5863 O   0  0  0  0  0  0  0  0  0  0  0  0
    1.1185    1.0955   -0.3647 N   0  0  0  0  0  0  0  0  0  0  0  0
    2.4892    1.2404    0.1167 C   0  0  1  0  0  0  0  0  0  0  0  0
    2.4941    2.0294    1.4351 C   0  0  0  0  0  0  0  0  0  0  0  0
    3.6992    2.9322    1.5785 C   0  0  0  0  0  0  0  0  0  0  0  0
    3.8001    4.0931    0.7949 C   0  0  0  0  0  0  0  0  0  0  0  0
    4.9034    4.9407    0.9274 C   0  0  0  0  0  0  0  0  0  0  0  0
    5.9352    4.6364    1.8275 C   0  0  0  0  0  0  0  0  0  0  0  0
    7.0608    5.4622    1.9499 C   0  0  0  0  0  0  0  0  0  0  0  0
    8.0690    5.1572    2.8592 C   0  0  0  0  0  0  0  0  0  0  0  0
    7.9910    3.9989    3.6293 C   0  0  0  0  0  0  0  0  0  0  0  0
    6.8915    3.1509    3.4998 C   0  0  0  0  0  0  0  0  0  0  0  0
    5.8437    3.4724    2.6213 C   0  0  0  0  0  0  0  0  0  0  0  0
    4.7154    2.6416    2.5014 C   0  0  0  0  0  0  0  0  0  0  0  0
    3.0636   -0.1854    0.2749 C   0  0  0  0  0  0  0  0  0  0  0  0
    2.3751   -1.1929    0.0854 O   0  0  0  0  0  0  0  0  0  0  0  0
    4.3884   -0.2595    0.6230 N   0  0  0  0  0  0  0  0  0  0  0  0
    5.0825   -1.5297    0.8523 C   0  0  1  0  0  0  0  0  0  0  0  0
    5.7758   -1.9694   -0.4457 C   0  0  0  0  0  0  0  0  0  0  0  0
    6.7940   -3.1030   -0.3747 C   0  0  0  0  0  0  0  0  0  0  0  0
    6.2722   -4.3933    0.2123 C   0  0  0  0  0  0  0  0  0  0  0  0
    6.7980   -5.5368   -0.3389 N   0  0  0  0  0  0  0  0  0  0  0  0
    5.5212   -4.4493    1.1743 O   0  0  0  0  0  0  0  0  0  0  0  0
    6.0527   -1.2903    2.0212 C   0  0  0  0  0  0  0  0  0  0  0  0
    6.4142   -2.3897    2.7363 N   0  0  0  0  0  0  0  0  0  0  0  0
    6.5063   -0.1800    2.3112 O   0  0  0  0  0  0  0  0  0  0  0  0
   -2.1720   -2.2930    0.8382 C   0  0  2  0  0  0  0  0  0  0  0  0
   -0.6937   -2.6251    0.7241 C   0  0  0  0  0  0  0  0  0  0  0  0
   -2.8704   -3.5202    1.0721 O   0  0  0  0  0  0  0  0  0  0  0  0
   -3.9109   -3.5398    2.2889 P   0  0  0  0  0  0  0  0  0  0  0  0
   -4.7444   -2.3178    2.4761 O   0  0  0  0  0  0  0  0  0  0  0  0
   -4.7603   -4.8726    2.0458 O   0  0  0  0  0  0  0  0  0  0  0  0
   -3.0177   -3.9214    3.5519 O   0  0  0  0  0  0  0  0  0  0  0  0
   -6.9316   -0.6566    2.5088 H   0  0  0  0  0  0  0  0  0  0  0  0
   -7.5489   -2.2496    2.9966 H   0  0  0  0  0  0  0  0  0  0  0  0
   -8.6150   -1.1045    2.1548 H   0  0  0  0  0  0  0  0  0  0  0  0
   -6.7431   -0.1425    0.2516 H   0  0  0  0  0  0  0  0  0  0  0  0
   -6.7616   -2.5055   -1.5853 H   0  0  0  0  0  0  0  0  0  0  0  0
   -6.7751   -0.8492   -3.4719 H   0  0  0  0  0  0  0  0  0  0  0  0
   -8.1879   -0.8143   -2.4404 H   0  0  0  0  0  0  0  0  0  0  0  0
   -8.8878    1.1631   -1.3206 H   0  0  0  0  0  0  0  0  0  0  0  0
   -8.6278    3.5920   -0.9956 H   0  0  0  0  0  0  0  0  0  0  0  0
   -6.5401    4.7314   -1.7194 H   0  0  0  0  0  0  0  0  0  0  0  0
   -4.7198    3.4267   -2.7790 H   0  0  0  0  0  0  0  0  0  0  0  0
   -4.9895    1.0027   -3.1774 H   0  0  0  0  0  0  0  0  0  0  0  0
   -4.6408   -1.3390    0.4348 H   0  0  0  0  0  0  0  0  0  0  0  0
   -2.4548   -2.2590   -1.3156 H   0  0  0  0  0  0  0  0  0  0  0  0
   -0.9363   -1.7464   -2.3762 H   0  0  0  0  0  0  0  0  0  0  0  0
    0.4256   -0.6583   -2.4134 H   0  0  0  0  0  0  0  0  0  0  0  0
   -0.5907   -0.8486   -4.6648 H   0  0  0  0  0  0  0  0  0  0  0  0
   -2.1665   -0.3384   -4.0260 H   0  0  0  0  0  0  0  0  0  0  0  0
    0.3935    1.3403   -4.1478 H   0  0  0  0  0  0  0  0  0  0  0  0
   -1.0558    1.5631   -5.1063 H   0  0  0  0  0  0  0  0  0  0  0  0
   -2.3888    2.0912   -3.1315 H   0  0  0  0  0  0  0  0  0  0  0  0
   -0.9922    3.1546   -3.1838 H   0  0  0  0  0  0  0  0  0  0  0  0
   -1.5285    2.1952   -0.9208 H   0  0  0  0  0  0  0  0  0  0  0  0
    0.6526    0.2187   -0.1782 H   0  0  0  0  0  0  0  0  0  0  0  0
    3.0762    1.7399   -0.6614 H   0  0  0  0  0  0  0  0  0  0  0  0
    2.4328    1.3476    2.2945 H   0  0  0  0  0  0  0  0  0  0  0  0
    1.6062    2.6725    1.4992 H   0  0  0  0  0  0  0  0  0  0  0  0
    3.0288    4.3467    0.0701 H   0  0  0  0  0  0  0  0  0  0  0  0
    4.9544    5.8454    0.3232 H   0  0  0  0  0  0  0  0  0  0  0  0
    7.1455    6.3642    1.3467 H   0  0  0  0  0  0  0  0  0  0  0  0
    8.9311    5.8064    2.9580 H   0  0  0  0  0  0  0  0  0  0  0  0
    8.7887    3.7438    4.3199 H   0  0  0  0  0  0  0  0  0  0  0  0
    6.8417    2.2414    4.0925 H   0  0  0  0  0  0  0  0  0  0  0  0
    4.6408    1.7564    3.1295 H   0  0  0  0  0  0  0  0  0  0  0  0
    4.9268    0.5834    0.7951 H   0  0  0  0  0  0  0  0  0  0  0  0
    4.3377   -2.2696    1.1667 H   0  0  0  0  0  0  0  0  0  0  0  0
    6.2911   -1.0968   -0.8786 H   0  0  0  0  0  0  0  0  0  0  0  0
    4.9972   -2.2469   -1.1735 H   0  0  0  0  0  0  0  0  0  0  0  0
    7.1505   -3.2912   -1.3944 H   0  0  0  0  0  0  0  0  0  0  0  0
    7.6700   -2.8070    0.2085 H   0  0  0  0  0  0  0  0  0  0  0  0
    7.2456   -5.5345   -1.2400 H   0  0  0  0  0  0  0  0  0  0  0  0
    6.4482   -6.4206    0.0147 H   0  0  0  0  0  0  0  0  0  0  0  0
    6.0038   -3.3066    2.5570 H   0  0  0  0  0  0  0  0  0  0  0  0
    7.0154   -2.2728    3.5397 H   0  0  0  0  0  0  0  0  0  0  0  0
   -2.3144   -1.6225    1.6960 H   0  0  0  0  0  0  0  0  0  0  0  0
   -0.3431   -3.1639    1.6135 H   0  0  0  0  0  0  0  0  0  0  0  0
   -0.4972   -3.2756   -0.1365 H   0  0  0  0  0  0  0  0  0  0  0  0
   -0.1004   -1.7166    0.6196 H   0  0  0  0  0  0  0  0  0  0  0  0
   -5.5103   -4.6944    1.4345 H   0  0  0  0  0  0  0  0  0  0  0  0
   -3.5639   -4.0082    4.3507 H   0  0  0  0  0  0  0  0  0  0  0  0
  1  2  1  0
  2  3  2  0
  2  4  1  0
  4  5  1  0
  5  6  1  0
  6  7  1  0
  7  8  2  0
  8  9  1  0
  9 10  2  0
 10 11  1  0
 11 12  2  0
  5 13  1  0
 13 14  2  0
 13 15  1  0
 15 16  1  0
 16 17  1  0
 17 18  2  0
 17 19  1  0
 19 20  1  0
 20 21  1  0
 21 22  1  0
 22 23  1  0
 23 24  1  0
 24 25  1  0
 25 26  2  0
 25 27  1  0
 27 28  1  0
 28 29  1  0
 29 30  1  0
 30 31  1  0
 31 32  2  0
 32 33  1  0
 33 34  2  0
 34 35  1  0
 35 36  2  0
 36 37  1  0
 37 38  2  0
 38 39  1  0
 28 40  1  0
 40 41  2  0
 40 42  1  0
 42 43  1  0
 43 44  1  0
 44 45  1  0
 45 46  1  0
 46 47  1  0
 46 48  2  0
 43 49  1  0
 49 50  1  0
 49 51  2  0
 16 52  1  0
 52 53  1  0
 52 54  1  0
 54 55  1  0
 55 56  2  0
 55 57  1  0
 55 58  1  0
 12  7  1  0
 24 19  1  0
 39 30  2  0
 38 33  1  0
  1 59  1  0
  1 60  1  0
  1 61  1  0
  4 62  1  0
  5 63  1  6
  6 64  1  0
  6 65  1  0
  8 66  1  0
  9 67  1  0
 10 68  1  0
 11 69  1  0
 12 70  1  0
 15 71  1  0
 16 72  1  6
 20 73  1  0
 20 74  1  0
 21 75  1  0
 21 76  1  0
 22 77  1  0
 22 78  1  0
 23 79  1  0
 23 80  1  0
 24 81  1  1
 27 82  1  0
 28 83  1  6
 29 84  1  0
 29 85  1  0
 31 86  1  0
 32 87  1  0
 34 88  1  0
 35 89  1  0
 36 90  1  0
 37 91  1  0
 39 92  1  0
 42 93  1  0
 43 94  1  1
 44 95  1  0
 44 96  1  0
 45 97  1  0
 45 98  1  0
 47 99  1  0
 47100  1  0
 50101  1  0
 50102  1  0
 52103  1  1
 53104  1  0
 53105  1  0
 53106  1  0
 57107  1  0
 58108  1  0
M  END
$$$$
