
     RDKit          3D

111115  0  0  0  0  0  0  0  0999 V2000
    6.8655    4.3800    1.9992 C   0  0  0  0  0  0  0  0  0  0  0  0
    6.6064    3.2482    1.0424 C   0  0  0  0  0  0  0  0  0  0  0  0
    6.6612    3.3978   -0.1736 O   0  0  0  0  0  0  0  0  0  0  0  0
    6.3399    2.0471    1.6606 N   0  0  0  0  0  0  0  0  0  0  0  0
    5.8842    0.9049    0.8651 C   0  0  1  0  0  0  0  0  0  0  0  0
    6.3029   -0.4346    1.4933 C   0  0  0  0  0  0  0  0  0  0  0  0
    7.7987   -0.6372    1.5454 C   0  0  0  0  0  0  0  0  0  0  0  0
    8.5496   -0.5119    2.6970 C   0  0  0  0  0  0  0  0  0  0  0  0
   10.2073   -0.7898    2.4428 S   0  0  0  0  0  0  0  0  0  0  0  0
    9.9734   -1.1109    0.7693 C   0  0  0  0  0  0  0  0  0  0  0  0
   10.9664   -1.4479   -0.1741 C   0  0  0  0  0  0  0  0  0  0  0  0
   10.5949   -1.6725   -1.5005 C   0  0  0  0  0  0  0  0  0  0  0  0
    9.2670   -1.5721   -1.8849 C   0  0  0  0  0  0  0  0  0  0  0  0
    8.2846   -1.2383   -0.9468 C   0  0  0  0  0  0  0  0  0  0  0  0
    8.6263   -0.9970    0.4103 C   0  0  0  0  0  0  0  0  0  0  0  0
    4.3435    0.9649    0.8112 C   0  0  0  0  0  0  0  0  0  0  0  0
    3.6779    1.5689    1.6524 O   0  0  0  0  0  0  0  0  0  0  0  0
    3.7716    0.2310   -0.2121 N   0  0  0  0  0  0  0  0  0  0  0  0
    2.3282   -0.0629   -0.1798 C   0  0  2  0  0  0  0  0  0  0  0  0
    2.1804   -1.2614    0.7920 C   0  0  0  0  0  0  0  0  0  0  0  0
    3.1185   -2.0677    0.8840 O   0  0  0  0  0  0  0  0  0  0  0  0
    1.0431   -1.3782    1.5847 N   0  0  0  0  0  0  0  0  0  0  0  0
    1.0355   -2.4569    2.5795 C   0  0  0  0  0  0  0  0  0  0  0  0
    0.2786   -2.0672    3.8456 C   0  0  0  0  0  0  0  0  0  0  0  0
   -1.1168   -1.5486    3.5209 C   0  0  0  0  0  0  0  0  0  0  0  0
   -1.0305   -0.3912    2.5296 C   0  0  0  0  0  0  0  0  0  0  0  0
   -0.2733   -0.7831    1.2537 C   0  0  2  0  0  0  0  0  0  0  0  0
   -1.1279   -1.7305    0.3611 C   0  0  0  0  0  0  0  0  0  0  0  0
   -0.8382   -2.9115    0.1754 O   0  0  0  0  0  0  0  0  0  0  0  0
   -2.2608   -1.1747   -0.2051 N   0  0  0  0  0  0  0  0  0  0  0  0
   -3.1887   -2.0213   -0.9681 C   0  0  1  0  0  0  0  0  0  0  0  0
   -4.2038   -2.7336   -0.0467 C   0  0  0  0  0  0  0  0  0  0  0  0
   -5.1492   -1.7955    0.6796 C   0  0  0  0  0  0  0  0  0  0  0  0
   -6.3370   -1.3718    0.0747 C   0  0  0  0  0  0  0  0  0  0  0  0
   -7.1858   -0.4754    0.7284 C   0  0  0  0  0  0  0  0  0  0  0  0
   -6.8660    0.0202    2.0023 C   0  0  0  0  0  0  0  0  0  0  0  0
   -7.7011    0.9336    2.6690 C   0  0  0  0  0  0  0  0  0  0  0  0
   -7.3627    1.4177    3.9349 C   0  0  0  0  0  0  0  0  0  0  0  0
   -6.1898    0.9904    4.5515 C   0  0  0  0  0  0  0  0  0  0  0  0
   -5.3530    0.0794    3.9046 C   0  0  0  0  0  0  0  0  0  0  0  0
   -5.6749   -0.4107    2.6281 C   0  0  0  0  0  0  0  0  0  0  0  0
   -4.8362   -1.3186    1.9595 C   0  0  0  0  0  0  0  0  0  0  0  0
   -3.9330   -1.3255   -2.1274 C   0  0  0  0  0  0  0  0  0  0  0  0
   -4.6636   -1.9582   -2.8894 O   0  0  0  0  0  0  0  0  0  0  0  0
   -3.8067    0.0439   -2.2061 N   0  0  0  0  0  0  0  0  0  0  0  0
   -4.4109    0.7685   -3.3206 C   0  0  1  0  0  0  0  0  0  0  0  0
   -4.8373    2.1804   -2.8890 C   0  0  0  0  0  0  0  0  0  0  0  0
   -6.3246    2.2424   -2.5343 C   0  0  0  0  0  0  0  0  0  0  0  0
   -7.1992    2.0418   -3.7558 C   0  0  0  0  0  0  0  0  0  0  0  0
   -8.5385    2.0865   -3.4968 N   0  0  0  0  0  0  0  0  0  0  0  0
   -6.7705    1.8571   -4.8910 O   0  0  0  0  0  0  0  0  0  0  0  0
   -3.4370    0.8423   -4.5173 C   0  0  0  0  0  0  0  0  0  0  0  0
   -4.0124    1.2297   -5.6962 N   0  0  0  0  0  0  0  0  0  0  0  0
   -2.2289    0.6200   -4.4438 O   0  0  0  0  0  0  0  0  0  0  0  0
    1.7984   -0.3296   -1.6060 C   0  0  1  0  0  0  0  0  0  0  0  0
    2.0715   -1.7354   -2.1286 C   0  0  0  0  0  0  0  0  0  0  0  0
    0.3954   -0.1172   -1.6557 O   0  0  0  0  0  0  0  0  0  0  0  0
   -0.1919    1.3190   -2.0386 P   0  0  0  0  0  0  0  0  0  0  0  0
   -1.5862    1.5618   -1.5563 O   0  0  0  0  0  0  0  0  0  0  0  0
    0.0199    1.4414   -3.6084 O   0  0  0  0  0  0  0  0  0  0  0  0
    0.8537    2.3750   -1.4654 O   0  0  0  0  0  0  0  0  0  0  0  0
    7.9433    4.5451    2.0820 H   0  0  0  0  0  0  0  0  0  0  0  0
    6.4644    4.1646    2.9957 H   0  0  0  0  0  0  0  0  0  0  0  0
    6.3821    5.2881    1.6280 H   0  0  0  0  0  0  0  0  0  0  0  0
    5.9339    2.1088    2.5876 H   0  0  0  0  0  0  0  0  0  0  0  0
    6.2712    0.9964   -0.1572 H   0  0  0  0  0  0  0  0  0  0  0  0
    5.8873   -0.5077    2.5085 H   0  0  0  0  0  0  0  0  0  0  0  0
    5.8634   -1.2685    0.9334 H   0  0  0  0  0  0  0  0  0  0  0  0
    8.1995   -0.2627    3.6876 H   0  0  0  0  0  0  0  0  0  0  0  0
   12.0072   -1.5283    0.1240 H   0  0  0  0  0  0  0  0  0  0  0  0
   11.3539   -1.9292   -2.2373 H   0  0  0  0  0  0  0  0  0  0  0  0
    8.9853   -1.7503   -2.9199 H   0  0  0  0  0  0  0  0  0  0  0  0
    7.2507   -1.1647   -1.2722 H   0  0  0  0  0  0  0  0  0  0  0  0
    4.3423   -0.5147   -0.5926 H   0  0  0  0  0  0  0  0  0  0  0  0
    1.8303    0.8004    0.2667 H   0  0  0  0  0  0  0  0  0  0  0  0
    2.0616   -2.7217    2.8620 H   0  0  0  0  0  0  0  0  0  0  0  0
    0.5904   -3.3492    2.1266 H   0  0  0  0  0  0  0  0  0  0  0  0
    0.2098   -2.9279    4.5222 H   0  0  0  0  0  0  0  0  0  0  0  0
    0.8367   -1.2852    4.3759 H   0  0  0  0  0  0  0  0  0  0  0  0
   -1.7274   -2.3580    3.1064 H   0  0  0  0  0  0  0  0  0  0  0  0
   -1.6154   -1.2146    4.4375 H   0  0  0  0  0  0  0  0  0  0  0  0
   -0.5020    0.4391    3.0136 H   0  0  0  0  0  0  0  0  0  0  0  0
   -2.0370   -0.0267    2.2998 H   0  0  0  0  0  0  0  0  0  0  0  0
   -0.1202    0.1354    0.6885 H   0  0  0  0  0  0  0  0  0  0  0  0
   -2.5766   -0.2551    0.0771 H   0  0  0  0  0  0  0  0  0  0  0  0
   -2.5837   -2.7951   -1.4603 H   0  0  0  0  0  0  0  0  0  0  0  0
   -4.7994   -3.4508   -0.6271 H   0  0  0  0  0  0  0  0  0  0  0  0
   -3.6652   -3.3366    0.6957 H   0  0  0  0  0  0  0  0  0  0  0  0
   -6.6107   -1.7363   -0.9149 H   0  0  0  0  0  0  0  0  0  0  0  0
   -8.1021   -0.1673    0.2325 H   0  0  0  0  0  0  0  0  0  0  0  0
   -8.6240    1.2766    2.2058 H   0  0  0  0  0  0  0  0  0  0  0  0
   -8.0152    2.1274    4.4386 H   0  0  0  0  0  0  0  0  0  0  0  0
   -5.9267    1.3646    5.5386 H   0  0  0  0  0  0  0  0  0  0  0  0
   -4.4443   -0.2469    4.4058 H   0  0  0  0  0  0  0  0  0  0  0  0
   -3.9257   -1.6586    2.4454 H   0  0  0  0  0  0  0  0  0  0  0  0
   -2.9493    0.4533   -1.8349 H   0  0  0  0  0  0  0  0  0  0  0  0
   -5.2710    0.1882   -3.6675 H   0  0  0  0  0  0  0  0  0  0  0  0
   -4.6366    2.9144   -3.6809 H   0  0  0  0  0  0  0  0  0  0  0  0
   -4.2535    2.5074   -2.0187 H   0  0  0  0  0  0  0  0  0  0  0  0
   -6.5516    3.2305   -2.1185 H   0  0  0  0  0  0  0  0  0  0  0  0
   -6.5764    1.4886   -1.7788 H   0  0  0  0  0  0  0  0  0  0  0  0
   -9.1731    1.8814   -4.2585 H   0  0  0  0  0  0  0  0  0  0  0  0
   -8.9044    2.0730   -2.5518 H   0  0  0  0  0  0  0  0  0  0  0  0
   -5.0221    1.3745   -5.7710 H   0  0  0  0  0  0  0  0  0  0  0  0
   -3.4590    1.2526   -6.5410 H   0  0  0  0  0  0  0  0  0  0  0  0
    2.2779    0.3727   -2.2993 H   0  0  0  0  0  0  0  0  0  0  0  0
    3.1400   -1.9669   -2.1242 H   0  0  0  0  0  0  0  0  0  0  0  0
    1.7004   -1.8279   -3.1549 H   0  0  0  0  0  0  0  0  0  0  0  0
    1.5360   -2.4917   -1.5466 H   0  0  0  0  0  0  0  0  0  0  0  0
   -0.7519    1.0462   -4.0908 H   0  0  0  0  0  0  0  0  0  0  0  0
    0.5492    3.2896   -1.5962 H   0  0  0  0  0  0  0  0  0  0  0  0
  1  2  1  0
  2  3  2  0
  2  4  1  0
  4  5  1  0
  5  6  1  0
  6  7  1  0
  7  8  2  0
  8  9  1  0
  9 10  1  0
 10 11  2  0
 11 12  1  0
 12 13  2  0
 13 14  1  0
 14 15  2  0
  5 16  1  0
 16 17  2  0
 16 18  1  0
 18 19  1  0
 19 20  1  0
 20 21  2  0
 20 22  1  0
 22 23  1  0
 23 24  1  0
 24 25  1  0
 25 26  1  0
 26 27  1  0
 27 28  1  0
 28 29  2  0
 28 30  1  0
 30 31  1  0
 31 32  1  0
 32 33  1  0
 33 34  1  0
 34 35  2  0
 35 36  1  0
 36 37  2  0
 37 38  1  0
 38 39  2  0
 39 40  1  0
 40 41  2  0
 41 42  1  0
 31 43  1  0
 43 44  2  0
 43 45  1  0
 45 46  1  0
 46 47  1  0
 47 48  1  0
 48 49  1  0
 49 50  1  0
 49 51  2  0
 46 52  1  0
 52 53  1  0
 52 54  2  0
 19 55  1  0
 55 56  1  0
 55 57  1  0
 57 58  1  0
 58 59  2  0
 58 60  1  0
 58 61  1  0
 15  7  1  0
 27 22  1  0
 42 33  2  0
 15 10  1  0
 41 36  1  0
  1 62  1  0
  1 63  1  0
  1 64  1  0
  4 65  1  0
  5 66  1  6
  6 67  1  0
  6 68  1  0
  8 69  1  0
 11 70  1  0
 12 71  1  0
 13 72  1  0
 14 73  1  0
 18 74  1  0
 19 75  1  1
 23 76  1  0
 23 77  1  0
 24 78  1  0
 24 79  1  0
 25 80  1  0
 25 81  1  0
 26 82  1  0
 26 83  1  0
 27 84  1  6
 30 85  1  0
 31 86  1  6
 32 87  1  0
 32 88  1  0
 34 89  1  0
 35 90  1  0
 37 91  1  0
 38 92  1  0
 39 93  1  0
 40 94  1  0
 42 95  1  0
 45 96  1  0
 46 97  1  6
 47 98  1  0
 47 99  1  0
 48100  1  0
 48101  1  0
 50102  1  0
 50103  1  0
 53104  1  0
 53105  1  0
 55106  1  6
 56107  1  0
 56108  1  0
 56109  1  0
 60110  1  0
 61111  1  0
M  END
$$$$
