
     RDKit          3D

148150  0  0  0  0  0  0  0  0999 V2000
   -8.8531   -4.5812    1.6129 C   0  0  0  0  0  0  0  0  0  0  0  0
   -7.7746   -3.6558    1.0597 C   0  0  0  0  0  0  0  0  0  0  0  0
   -6.6757   -3.3134    2.0877 C   0  0  2  0  0  0  0  0  0  0  0  0
   -7.2365   -2.4975    3.2620 C   0  0  0  0  0  0  0  0  0  0  0  0
   -5.4729   -2.5597    1.4655 C   0  0  2  0  0  0  0  0  0  0  0  0
   -5.8594   -1.3936    0.6771 N   0  0  0  0  0  0  0  0  0  0  0  0
   -5.0133   -0.3029    0.6397 C   0  0  0  0  0  0  0  0  0  0  0  0
   -4.0791   -0.1618    1.4245 O   0  0  0  0  0  0  0  0  0  0  0  0
   -5.3159    0.7216   -0.4738 C   0  0  2  0  0  0  0  0  0  0  0  0
   -4.9068    0.1574   -1.8436 C   0  0  0  0  0  0  0  0  0  0  0  0
   -5.2643    1.0843   -3.0055 C   0  0  0  0  0  0  0  0  0  0  0  0
   -6.7517    1.2533   -3.1483 C   0  0  0  0  0  0  0  0  0  0  0  0
   -7.6142    0.5026   -2.7226 O   0  0  0  0  0  0  0  0  0  0  0  0
   -7.0727    2.3485   -3.8642 O   0  0  0  0  0  0  0  0  0  0  0  0
   -4.5541    1.9334   -0.1795 N   0  0  0  0  0  0  0  0  0  0  0  0
   -5.1531    3.1696   -0.0569 C   0  0  0  0  0  0  0  0  0  0  0  0
   -6.3512    3.3453   -0.2794 O   0  0  0  0  0  0  0  0  0  0  0  0
   -4.2148    4.2745    0.5024 C   0  0  2  0  0  0  0  0  0  0  0  0
   -4.8608    5.6750    0.4977 C   0  0  0  0  0  0  0  0  0  0  0  0
   -5.1338    6.2270   -0.9073 C   0  0  0  0  0  0  0  0  0  0  0  0
   -4.0096    6.6824    1.2840 C   0  0  0  0  0  0  0  0  0  0  0  0
   -2.9050    4.2633   -0.1554 N   0  0  0  0  0  0  0  0  0  0  0  0
   -1.8759    3.4664    0.2838 C   0  0  0  0  0  0  0  0  0  0  0  0
   -2.0246    2.6483    1.1915 O   0  0  0  0  0  0  0  0  0  0  0  0
   -0.5449    3.6272   -0.4821 C   0  0  2  0  0  0  0  0  0  0  0  0
   -0.5723    2.8227   -1.7967 C   0  0  0  0  0  0  0  0  0  0  0  0
   -0.2298    3.6833   -3.0173 C   0  0  0  0  0  0  0  0  0  0  0  0
   -1.4360    4.4531   -3.4798 C   0  0  0  0  0  0  0  0  0  0  0  0
   -2.1904    5.1001   -2.7649 O   0  0  0  0  0  0  0  0  0  0  0  0
   -1.6163    4.3812   -4.8107 O   0  0  0  0  0  0  0  0  0  0  0  0
    0.5271    3.1336    0.3750 N   0  0  0  0  0  0  0  0  0  0  0  0
    1.0025    3.9062    1.4173 C   0  0  0  0  0  0  0  0  0  0  0  0
    0.7779    5.1129    1.5021 O   0  0  0  0  0  0  0  0  0  0  0  0
    1.7867    3.0947    2.4776 C   0  0  2  0  0  0  0  0  0  0  0  0
    2.2680    3.9580    3.6437 C   0  0  0  0  0  0  0  0  0  0  0  0
    3.6500    4.4108    3.1944 C   0  0  0  0  0  0  0  0  0  0  0  0
    4.1930    3.1859    2.4737 C   0  0  0  0  0  0  0  0  0  0  0  0
    3.0195    2.5364    1.9063 N   0  0  0  0  0  0  0  0  0  0  0  0
    3.0128    1.3831    1.1531 C   0  0  0  0  0  0  0  0  0  0  0  0
    1.9541    0.7929    0.8964 O   0  0  0  0  0  0  0  0  0  0  0  0
    4.3407    0.8842    0.5498 C   0  0  2  0  0  0  0  0  0  0  0  0
    4.4619    1.3552   -0.9084 C   0  0  0  0  0  0  0  0  0  0  0  0
    4.9025    2.7890   -1.0581 C   0  0  0  0  0  0  0  0  0  0  0  0
    6.2597    3.1279   -0.9388 C   0  0  0  0  0  0  0  0  0  0  0  0
    6.6705    4.4563   -1.0568 C   0  0  0  0  0  0  0  0  0  0  0  0
    5.7243    5.4490   -1.2900 C   0  0  0  0  0  0  0  0  0  0  0  0
    6.0819    6.7582   -1.4146 O   0  0  0  0  0  0  0  0  0  0  0  0
    4.3752    5.1304   -1.4016 C   0  0  0  0  0  0  0  0  0  0  0  0
    3.9629    3.8026   -1.2893 C   0  0  0  0  0  0  0  0  0  0  0  0
    4.2964   -0.5816    0.5738 N   0  0  0  0  0  0  0  0  0  0  0  0
    5.0488   -1.3314    1.4505 C   0  0  0  0  0  0  0  0  0  0  0  0
    5.8538   -0.8332    2.2351 O   0  0  0  0  0  0  0  0  0  0  0  0
    4.7152   -2.8403    1.4341 C   0  0  2  0  0  0  0  0  0  0  0  0
    5.9316   -3.7057    1.7920 C   0  0  0  0  0  0  0  0  0  0  0  0
    7.0691   -3.6453    0.7599 C   0  0  0  0  0  0  0  0  0  0  0  0
    8.2938   -4.4183    1.2501 C   0  0  0  0  0  0  0  0  0  0  0  0
    9.3663   -4.3658    0.2712 N   0  0  0  0  0  0  0  0  0  0  0  0
    9.4859   -5.2149   -0.7741 C   0  0  0  0  0  0  0  0  0  0  0  0
    8.6195   -6.0185   -1.2663 N   0  0  0  0  0  0  0  0  0  0  0  0
   10.7138   -5.1418   -1.3246 N   0  0  0  0  0  0  0  0  0  0  0  0
    4.1211   -3.2260    0.1573 N   0  0  0  0  0  0  0  0  0  0  0  0
    3.0279   -4.0630    0.0397 C   0  0  0  0  0  0  0  0  0  0  0  0
    2.4504   -4.5549    1.0044 O   0  0  0  0  0  0  0  0  0  0  0  0
    2.5909   -4.2361   -1.4362 C   0  0  1  0  0  0  0  0  0  0  0  0
    3.8176   -4.4690   -2.2521 N   0  0  0  0  0  0  0  0  0  0  0  0
    1.5421   -5.3506   -1.6082 C   0  0  0  0  0  0  0  0  0  0  0  0
   -0.1508   -4.7124   -1.9311 S   0  0  0  0  0  0  0  0  0  0  0  0
   -0.6366   -3.7252   -0.1908 S   0  0  0  0  0  0  0  0  0  0  0  0
   -1.3602   -5.0630    0.8302 C   0  0  0  0  0  0  0  0  0  0  0  0
   -2.8577   -5.2422    0.5620 C   0  0  1  0  0  0  0  0  0  0  0  0
   -3.3029   -6.5690    1.1618 C   0  0  0  0  0  0  0  0  0  0  0  0
   -3.8038   -6.7297    2.2645 O   0  0  0  0  0  0  0  0  0  0  0  0
   -3.0665   -7.6253    0.3603 O   0  0  0  0  0  0  0  0  0  0  0  0
   -3.6586   -4.1966    1.2172 N   0  0  0  0  0  0  0  0  0  0  0  0
   -4.6331   -3.4874    0.5564 C   0  0  0  0  0  0  0  0  0  0  0  0
   -4.8381   -3.5886   -0.6540 O   0  0  0  0  0  0  0  0  0  0  0  0
   -9.4409   -4.0937    2.3982 H   0  0  0  0  0  0  0  0  0  0  0  0
   -9.5460   -4.8653    0.8149 H   0  0  0  0  0  0  0  0  0  0  0  0
   -8.4148   -5.4962    2.0259 H   0  0  0  0  0  0  0  0  0  0  0  0
   -8.2560   -2.7407    0.6956 H   0  0  0  0  0  0  0  0  0  0  0  0
   -7.3261   -4.1503    0.1919 H   0  0  0  0  0  0  0  0  0  0  0  0
   -6.2983   -4.2581    2.5016 H   0  0  0  0  0  0  0  0  0  0  0  0
   -8.0191   -3.0466    3.7915 H   0  0  0  0  0  0  0  0  0  0  0  0
   -6.4499   -2.2821    3.9927 H   0  0  0  0  0  0  0  0  0  0  0  0
   -7.6572   -1.5456    2.9242 H   0  0  0  0  0  0  0  0  0  0  0  0
   -4.8149   -2.2286    2.2781 H   0  0  0  0  0  0  0  0  0  0  0  0
   -6.3905   -1.5868   -0.1658 H   0  0  0  0  0  0  0  0  0  0  0  0
   -6.3875    0.9385   -0.4329 H   0  0  0  0  0  0  0  0  0  0  0  0
   -5.3738   -0.8203   -2.0047 H   0  0  0  0  0  0  0  0  0  0  0  0
   -3.8229   -0.0145   -1.8548 H   0  0  0  0  0  0  0  0  0  0  0  0
   -4.8871    0.6602   -3.9432 H   0  0  0  0  0  0  0  0  0  0  0  0
   -4.8009    2.0669   -2.8658 H   0  0  0  0  0  0  0  0  0  0  0  0
   -8.0533    2.3744   -3.8293 H   0  0  0  0  0  0  0  0  0  0  0  0
   -3.7108    1.7958    0.3848 H   0  0  0  0  0  0  0  0  0  0  0  0
   -4.0566    3.9928    1.5492 H   0  0  0  0  0  0  0  0  0  0  0  0
   -5.8307    5.5975    1.0094 H   0  0  0  0  0  0  0  0  0  0  0  0
   -5.7189    5.5331   -1.5125 H   0  0  0  0  0  0  0  0  0  0  0  0
   -5.7017    7.1592   -0.8433 H   0  0  0  0  0  0  0  0  0  0  0  0
   -4.2059    6.4474   -1.4399 H   0  0  0  0  0  0  0  0  0  0  0  0
   -3.0461    6.8658    0.7917 H   0  0  0  0  0  0  0  0  0  0  0  0
   -4.5305    7.6452    1.3670 H   0  0  0  0  0  0  0  0  0  0  0  0
   -3.8140    6.3188    2.2997 H   0  0  0  0  0  0  0  0  0  0  0  0
   -2.8022    4.7587   -1.0430 H   0  0  0  0  0  0  0  0  0  0  0  0
   -0.3824    4.6967   -0.6588 H   0  0  0  0  0  0  0  0  0  0  0  0
    0.1669    2.0099   -1.7550 H   0  0  0  0  0  0  0  0  0  0  0  0
   -1.5511    2.3535   -1.9499 H   0  0  0  0  0  0  0  0  0  0  0  0
    0.5813    4.3902   -2.8122 H   0  0  0  0  0  0  0  0  0  0  0  0
    0.1004    3.0216   -3.8285 H   0  0  0  0  0  0  0  0  0  0  0  0
   -2.4060    4.9333   -5.0025 H   0  0  0  0  0  0  0  0  0  0  0  0
    0.5356    2.1283    0.5580 H   0  0  0  0  0  0  0  0  0  0  0  0
    1.1307    2.2923    2.8369 H   0  0  0  0  0  0  0  0  0  0  0  0
    2.3648    3.3436    4.5460 H   0  0  0  0  0  0  0  0  0  0  0  0
    1.6133    4.7999    3.8802 H   0  0  0  0  0  0  0  0  0  0  0  0
    4.2892    4.7232    4.0255 H   0  0  0  0  0  0  0  0  0  0  0  0
    3.5621    5.2493    2.4936 H   0  0  0  0  0  0  0  0  0  0  0  0
    4.9176    3.4528    1.7027 H   0  0  0  0  0  0  0  0  0  0  0  0
    4.6574    2.4853    3.1748 H   0  0  0  0  0  0  0  0  0  0  0  0
    5.1947    1.2175    1.1459 H   0  0  0  0  0  0  0  0  0  0  0  0
    5.1946    0.7241   -1.4384 H   0  0  0  0  0  0  0  0  0  0  0  0
    3.5141    1.2005   -1.4467 H   0  0  0  0  0  0  0  0  0  0  0  0
    7.0057    2.3563   -0.7495 H   0  0  0  0  0  0  0  0  0  0  0  0
    7.7246    4.6987   -0.9571 H   0  0  0  0  0  0  0  0  0  0  0  0
    7.0503    6.8168   -1.4135 H   0  0  0  0  0  0  0  0  0  0  0  0
    3.6440    5.9171   -1.5767 H   0  0  0  0  0  0  0  0  0  0  0  0
    2.9038    3.5709   -1.3705 H   0  0  0  0  0  0  0  0  0  0  0  0
    3.4369   -1.0135    0.2397 H   0  0  0  0  0  0  0  0  0  0  0  0
    3.9601   -2.9810    2.2156 H   0  0  0  0  0  0  0  0  0  0  0  0
    5.6114   -4.7497    1.8960 H   0  0  0  0  0  0  0  0  0  0  0  0
    6.3179   -3.3936    2.7682 H   0  0  0  0  0  0  0  0  0  0  0  0
    7.3559   -2.6064    0.5627 H   0  0  0  0  0  0  0  0  0  0  0  0
    6.7237   -4.0548   -0.1950 H   0  0  0  0  0  0  0  0  0  0  0  0
    8.6546   -3.9622    2.1796 H   0  0  0  0  0  0  0  0  0  0  0  0
    8.0392   -5.4568    1.4891 H   0  0  0  0  0  0  0  0  0  0  0  0
   10.2701   -4.2078    0.7059 H   0  0  0  0  0  0  0  0  0  0  0  0
    7.7525   -5.9444   -0.7369 H   0  0  0  0  0  0  0  0  0  0  0  0
   10.9845   -4.1887   -1.5353 H   0  0  0  0  0  0  0  0  0  0  0  0
   10.7338   -5.7059   -2.1701 H   0  0  0  0  0  0  0  0  0  0  0  0
    4.6033   -3.0093   -0.7113 H   0  0  0  0  0  0  0  0  0  0  0  0
    2.1897   -3.2656   -1.7542 H   0  0  0  0  0  0  0  0  0  0  0  0
    4.2019   -5.3881   -2.0238 H   0  0  0  0  0  0  0  0  0  0  0  0
    3.5499   -4.5251   -3.2376 H   0  0  0  0  0  0  0  0  0  0  0  0
    1.5140   -6.0528   -0.7666 H   0  0  0  0  0  0  0  0  0  0  0  0
    1.7786   -5.9515   -2.4973 H   0  0  0  0  0  0  0  0  0  0  0  0
   -1.1927   -4.7935    1.8804 H   0  0  0  0  0  0  0  0  0  0  0  0
   -0.8019   -5.9898    0.6545 H   0  0  0  0  0  0  0  0  0  0  0  0
   -3.0885   -5.2650   -0.5081 H   0  0  0  0  0  0  0  0  0  0  0  0
   -3.4278   -8.3930    0.8530 H   0  0  0  0  0  0  0  0  0  0  0  0
   -3.6666   -4.1954    2.2330 H   0  0  0  0  0  0  0  0  0  0  0  0
  1  2  1  0
  2  3  1  0
  3  4  1  0
  3  5  1  0
  5  6  1  0
  6  7  1  0
  7  8  2  0
  7  9  1  0
  9 10  1  0
 10 11  1  0
 11 12  1  0
 12 13  2  0
 12 14  1  0
  9 15  1  0
 15 16  1  0
 16 17  2  0
 16 18  1  0
 18 19  1  0
 19 20  1  0
 19 21  1  0
 18 22  1  0
 22 23  1  0
 23 24  2  0
 23 25  1  0
 25 26  1  0
 26 27  1  0
 27 28  1  0
 28 29  2  0
 28 30  1  0
 25 31  1  0
 31 32  1  0
 32 33  2  0
 32 34  1  0
 34 35  1  0
 35 36  1  0
 36 37  1  0
 37 38  1  0
 38 39  1  0
 39 40  2  0
 39 41  1  0
 41 42  1  0
 42 43  1  0
 43 44  1  0
 44 45  2  0
 45 46  1  0
 46 47  1  0
 46 48  2  0
 48 49  1  0
 41 50  1  0
 50 51  1  0
 51 52  2  0
 51 53  1  0
 53 54  1  0
 54 55  1  0
 55 56  1  0
 56 57  1  0
 57 58  1  0
 58 59  2  3
 58 60  1  0
 53 61  1  0
 61 62  1  0
 62 63  2  0
 62 64  1  0
 64 65  1  0
 64 66  1  0
 66 67  1  0
 67 68  1  0
 68 69  1  0
 69 70  1  0
 70 71  1  0
 71 72  2  0
 71 73  1  0
 70 74  1  0
 74 75  1  0
 75 76  2  0
 75  5  1  0
 38 34  1  0
 49 43  2  0
  1 77  1  0
  1 78  1  0
  1 79  1  0
  2 80  1  0
  2 81  1  0
  3 82  1  1
  4 83  1  0
  4 84  1  0
  4 85  1  0
  5 86  1  1
  6 87  1  0
  9 88  1  6
 10 89  1  0
 10 90  1  0
 11 91  1  0
 11 92  1  0
 14 93  1  0
 15 94  1  0
 18 95  1  1
 19 96  1  0
 20 97  1  0
 20 98  1  0
 20 99  1  0
 21100  1  0
 21101  1  0
 21102  1  0
 22103  1  0
 25104  1  6
 26105  1  0
 26106  1  0
 27107  1  0
 27108  1  0
 30109  1  0
 31110  1  0
 34111  1  1
 35112  1  0
 35113  1  0
 36114  1  0
 36115  1  0
 37116  1  0
 37117  1  0
 41118  1  1
 42119  1  0
 42120  1  0
 44121  1  0
 45122  1  0
 47123  1  0
 48124  1  0
 49125  1  0
 50126  1  0
 53127  1  1
 54128  1  0
 54129  1  0
 55130  1  0
 55131  1  0
 56132  1  0
 56133  1  0
 57134  1  0
 59135  1  0
 60136  1  0
 60137  1  0
 61138  1  0
 64139  1  6
 65140  1  0
 65141  1  0
 66142  1  0
 66143  1  0
 69144  1  0
 69145  1  0
 70146  1  6
 73147  1  0
 74148  1  0
M  END
$$$$
