
     RDKit          3D

334343  0  0  0  0  0  0  0  0999 V2000
    5.3271   -2.6577    2.5510 C   0  0  0  0  0  0  0  0  0  0  0  0
    4.7804   -1.3646    1.9552 C   0  0  1  0  0  0  0  0  0  0  0  0
    5.5885   -0.9819    0.7947 N   0  0  0  0  0  0  0  0  0  0  0  0
    5.5207    0.2942    0.2827 C   0  0  0  0  0  0  0  0  0  0  0  0
    4.6482    1.0895    0.6353 O   0  0  0  0  0  0  0  0  0  0  0  0
    6.5174    0.6258   -0.8456 C   0  0  2  0  0  0  0  0  0  0  0  0
    5.8971    0.5596   -2.2445 C   0  0  0  0  0  0  0  0  0  0  0  0
    5.2841   -0.7707   -2.6931 C   0  0  0  0  0  0  0  0  0  0  0  0
    6.2714   -1.8618   -3.1115 C   0  0  0  0  0  0  0  0  0  0  0  0
    6.8350   -2.6450   -2.0013 N   0  0  0  0  0  0  0  0  0  0  0  0
    6.0623   -3.5672   -1.3662 C   0  0  0  0  0  0  0  0  0  0  0  0
    4.8195   -3.3944   -1.0834 N   0  0  0  0  0  0  0  0  0  0  0  0
    6.7466   -4.6454   -0.9353 N   0  0  0  0  0  0  0  0  0  0  0  0
    7.7603   -0.1490   -0.7635 N   0  0  0  0  0  0  0  0  0  0  0  0
    8.9149    0.3983   -0.2481 C   0  0  0  0  0  0  0  0  0  0  0  0
    8.9987    1.5740    0.1139 O   0  0  0  0  0  0  0  0  0  0  0  0
   10.1299   -0.5471   -0.1786 C   0  0  2  0  0  0  0  0  0  0  0  0
   10.0086   -1.5413    0.9916 C   0  0  0  0  0  0  0  0  0  0  0  0
    9.6377   -2.9591    0.5468 C   0  0  0  0  0  0  0  0  0  0  0  0
   10.7968   -3.7143   -0.1071 C   0  0  0  0  0  0  0  0  0  0  0  0
   10.2927   -4.8882   -0.7912 N   0  0  0  0  0  0  0  0  0  0  0  0
    9.8724   -4.9041   -2.0768 C   0  0  0  0  0  0  0  0  0  0  0  0
   10.0794   -4.0509   -3.0078 N   0  0  0  0  0  0  0  0  0  0  0  0
    9.0554   -5.9401   -2.3324 N   0  0  0  0  0  0  0  0  0  0  0  0
   11.2933    0.3161    0.0139 N   0  0  0  0  0  0  0  0  0  0  0  0
   12.5700   -0.0523   -0.3455 C   0  0  0  0  0  0  0  0  0  0  0  0
   12.8328   -1.1963   -0.6919 O   0  0  0  0  0  0  0  0  0  0  0  0
   13.6431    1.0231   -0.0557 C   0  0  2  0  0  0  0  0  0  0  0  0
   14.2209    0.8121    1.3535 C   0  0  0  0  0  0  0  0  0  0  0  0
   15.2265   -0.3066    1.4779 C   0  0  0  0  0  0  0  0  0  0  0  0
   16.5862   -0.0574    1.2891 C   0  0  0  0  0  0  0  0  0  0  0  0
   17.5299   -1.0781    1.4534 C   0  0  0  0  0  0  0  0  0  0  0  0
   17.1206   -2.3750    1.8052 C   0  0  0  0  0  0  0  0  0  0  0  0
   18.0530   -3.4066    1.9884 C   0  0  0  0  0  0  0  0  0  0  0  0
   17.6350   -4.6947    2.3311 C   0  0  0  0  0  0  0  0  0  0  0  0
   16.2768   -4.9643    2.4961 C   0  0  0  0  0  0  0  0  0  0  0  0
   15.3399   -3.9474    2.3186 C   0  0  0  0  0  0  0  0  0  0  0  0
   15.7453   -2.6471    1.9787 C   0  0  0  0  0  0  0  0  0  0  0  0
   14.8135   -1.6063    1.8110 C   0  0  0  0  0  0  0  0  0  0  0  0
   13.0018    2.3522   -0.1133 N   0  0  0  0  0  0  0  0  0  0  0  0
   12.9508    3.1262   -1.2587 C   0  0  0  0  0  0  0  0  0  0  0  0
   13.4301    2.7360   -2.3227 O   0  0  0  0  0  0  0  0  0  0  0  0
   12.4423    4.5748   -1.0139 C   0  0  1  0  0  0  0  0  0  0  0  0
   12.2359    5.3591   -2.3158 C   0  0  0  0  0  0  0  0  0  0  0  0
   11.0083    4.9141   -3.1035 C   0  0  0  0  0  0  0  0  0  0  0  0
    9.9515    4.2460   -2.2275 C   0  0  0  0  0  0  0  0  0  0  0  0
    9.9472    4.7841   -0.8003 C   0  0  0  0  0  0  0  0  0  0  0  0
   11.2502    4.6793   -0.1352 N   0  0  0  0  0  0  0  0  0  0  0  0
   11.4589    4.7391    1.2382 C   0  0  0  0  0  0  0  0  0  0  0  0
   12.5222    4.2897    1.6937 O   0  0  0  0  0  0  0  0  0  0  0  0
   10.5095    5.4868    2.2153 C   0  0  1  0  0  0  0  0  0  0  0  0
   11.1356    6.8689    2.5043 C   0  0  0  0  0  0  0  0  0  0  0  0
   10.9760    7.8864    1.4152 C   0  0  0  0  0  0  0  0  0  0  0  0
   10.4484    7.7593    0.3269 O   0  0  0  0  0  0  0  0  0  0  0  0
   11.5216    9.0669    1.7658 O   0  0  0  0  0  0  0  0  0  0  0  0
    9.0720    5.4484    1.9591 N   0  0  0  0  0  0  0  0  0  0  0  0
    8.1607    6.0197    2.8278 C   0  0  0  0  0  0  0  0  0  0  0  0
    8.4827    6.7045    3.7963 O   0  0  0  0  0  0  0  0  0  0  0  0
    6.6968    5.7090    2.5092 C   0  0  0  0  0  0  0  0  0  0  0  0
    6.1533    6.2443    1.2509 N   0  0  0  0  0  0  0  0  0  0  0  0
    6.7735    7.4465    0.7072 C   0  0  0  0  0  0  0  0  0  0  0  0
    4.8541    5.8275    0.9426 C   0  0  0  0  0  0  0  0  0  0  0  0
    4.3398    4.8919    1.5661 O   0  0  0  0  0  0  0  0  0  0  0  0
    4.0471    6.6217   -0.1258 C   0  0  2  0  0  0  0  0  0  0  0  0
    3.5920    7.9650    0.4433 C   0  0  0  0  0  0  0  0  0  0  0  0
    2.3659    7.5812    1.2648 C   0  0  0  0  0  0  0  0  0  0  0  0
    1.7017    6.5065    0.4137 C   0  0  0  0  0  0  0  0  0  0  0  0
    2.7709    5.9649   -0.4248 N   0  0  0  0  0  0  0  0  0  0  0  0
    2.7314    4.8589   -1.2576 C   0  0  0  0  0  0  0  0  0  0  0  0
    3.7240    4.4376   -1.8489 O   0  0  0  0  0  0  0  0  0  0  0  0
    1.4539    4.1180   -1.4345 C   0  0  0  0  0  0  0  0  0  0  0  0
    0.2503    4.7816   -1.6954 C   0  0  0  0  0  0  0  0  0  0  0  0
   -0.9557    4.0717   -1.7305 C   0  0  0  0  0  0  0  0  0  0  0  0
   -0.9325    2.6802   -1.6612 C   0  0  0  0  0  0  0  0  0  0  0  0
    0.2832    1.9930   -1.4942 C   0  0  0  0  0  0  0  0  0  0  0  0
    1.4696    2.7184   -1.3428 C   0  0  0  0  0  0  0  0  0  0  0  0
    0.2288    0.5014   -1.4694 C   0  0  0  0  0  0  0  0  0  0  0  0
   -0.8573   -0.0618   -1.3367 O   0  0  0  0  0  0  0  0  0  0  0  0
    1.3973   -0.1993   -1.6559 N   0  0  0  0  0  0  0  0  0  0  0  0
    1.3887   -1.6528   -1.5101 C   0  0  0  0  0  0  0  0  0  0  0  0
    1.5668   -2.0616   -0.0367 C   0  0  2  0  0  0  0  0  0  0  0  0
    2.9573   -1.8765    0.3702 N   0  0  0  0  0  0  0  0  0  0  0  0
    3.2741   -1.5521    1.6639 C   0  0  0  0  0  0  0  0  0  0  0  0
    2.4395   -1.5186    2.5674 O   0  0  0  0  0  0  0  0  0  0  0  0
    1.0728   -3.5136    0.1305 C   0  0  0  0  0  0  0  0  0  0  0  0
    1.7769   -4.4987   -0.0978 O   0  0  0  0  0  0  0  0  0  0  0  0
   -0.2559   -3.5832    0.5028 N   0  0  0  0  0  0  0  0  0  0  0  0
   -1.0435   -4.8185    0.5164 C   0  0  1  0  0  0  0  0  0  0  0  0
   -1.6653   -5.0708    1.9017 C   0  0  0  0  0  0  0  0  0  0  0  0
   -0.7215   -5.7044    2.8958 C   0  0  0  0  0  0  0  0  0  0  0  0
    0.2970   -4.9524    3.4962 C   0  0  0  0  0  0  0  0  0  0  0  0
    1.1477   -5.5352    4.4358 C   0  0  0  0  0  0  0  0  0  0  0  0
    0.9904   -6.8735    4.7881 C   0  0  0  0  0  0  0  0  0  0  0  0
   -0.0161   -7.6342    4.1933 C   0  0  0  0  0  0  0  0  0  0  0  0
   -0.8675   -7.0522    3.2522 C   0  0  0  0  0  0  0  0  0  0  0  0
   -2.1869   -4.5956   -0.5024 C   0  0  0  0  0  0  0  0  0  0  0  0
   -2.4569   -3.4789   -0.9425 O   0  0  0  0  0  0  0  0  0  0  0  0
   -2.9127   -5.7141   -0.8634 N   0  0  0  0  0  0  0  0  0  0  0  0
   -4.2317   -5.5361   -1.4771 C   0  0  1  0  0  0  0  0  0  0  0  0
   -4.5262   -6.5735   -2.5772 C   0  0  0  0  0  0  0  0  0  0  0  0
   -4.7978   -7.9773   -2.0823 C   0  0  0  0  0  0  0  0  0  0  0  0
   -3.7457   -8.8352   -1.7455 C   0  0  0  0  0  0  0  0  0  0  0  0
   -4.0134  -10.1058   -1.2235 C   0  0  0  0  0  0  0  0  0  0  0  0
   -5.3328  -10.5450   -1.0369 C   0  0  0  0  0  0  0  0  0  0  0  0
   -5.6167  -11.8160   -0.5043 C   0  0  0  0  0  0  0  0  0  0  0  0
   -6.9372  -12.2353   -0.3272 C   0  0  0  0  0  0  0  0  0  0  0  0
   -7.9860  -11.3976   -0.6823 C   0  0  0  0  0  0  0  0  0  0  0  0
   -7.7204  -10.1386   -1.2192 C   0  0  0  0  0  0  0  0  0  0  0  0
   -6.3993   -9.6934   -1.3952 C   0  0  0  0  0  0  0  0  0  0  0  0
   -6.1183   -8.4220   -1.9155 C   0  0  0  0  0  0  0  0  0  0  0  0
   -5.2820   -5.5996   -0.3482 C   0  0  0  0  0  0  0  0  0  0  0  0
   -5.0691   -6.2146    0.6973 O   0  0  0  0  0  0  0  0  0  0  0  0
   -6.4745   -4.9732   -0.6241 N   0  0  0  0  0  0  0  0  0  0  0  0
   -7.7226   -5.1903    0.1261 C   0  0  1  0  0  0  0  0  0  0  0  0
   -7.5848   -5.0173    1.6493 C   0  0  0  0  0  0  0  0  0  0  0  0
   -7.7279   -6.3458    2.4172 C   0  0  0  0  0  0  0  0  0  0  0  0
   -9.1448   -6.9183    2.4749 C   0  0  0  0  0  0  0  0  0  0  0  0
   -9.5652   -7.4730    1.1909 N   0  0  0  0  0  0  0  0  0  0  0  0
  -10.7967   -8.0105    1.0560 C   0  0  0  0  0  0  0  0  0  0  0  0
  -11.7475   -7.8660    1.9046 N   0  0  0  0  0  0  0  0  0  0  0  0
  -10.9207   -8.7096   -0.0922 N   0  0  0  0  0  0  0  0  0  0  0  0
   -8.7734   -4.2840   -0.5691 C   0  0  0  0  0  0  0  0  0  0  0  0
   -8.6336   -3.9672   -1.7540 O   0  0  0  0  0  0  0  0  0  0  0  0
   -9.8935   -3.9157    0.1429 N   0  0  0  0  0  0  0  0  0  0  0  0
  -10.9690   -3.1520   -0.5101 C   0  0  1  0  0  0  0  0  0  0  0  0
  -12.2930   -3.2313    0.2698 C   0  0  0  0  0  0  0  0  0  0  0  0
  -12.8742   -4.6264    0.5251 C   0  0  0  0  0  0  0  0  0  0  0  0
  -13.0758   -5.4904   -0.7200 C   0  0  0  0  0  0  0  0  0  0  0  0
  -11.8010   -5.8948   -1.2589 N   0  0  0  0  0  0  0  0  0  0  0  0
  -11.5994   -6.5921   -2.3898 C   0  0  0  0  0  0  0  0  0  0  0  0
  -12.4491   -7.0088   -3.2481 N   0  0  0  0  0  0  0  0  0  0  0  0
  -10.2874   -6.8501   -2.5657 N   0  0  0  0  0  0  0  0  0  0  0  0
  -10.5969   -1.6606   -0.6262 C   0  0  0  0  0  0  0  0  0  0  0  0
  -11.0165   -0.9437   -1.5360 O   0  0  0  0  0  0  0  0  0  0  0  0
   -9.9606   -1.1370    0.4820 N   0  0  0  0  0  0  0  0  0  0  0  0
   -9.6424    0.2807    0.5418 C   0  0  1  0  0  0  0  0  0  0  0  0
   -9.7734    0.7937    1.9833 C   0  0  0  0  0  0  0  0  0  0  0  0
  -10.0199    2.3012    2.0120 C   0  0  0  0  0  0  0  0  0  0  0  0
  -11.4747    2.6540    1.6907 C   0  0  0  0  0  0  0  0  0  0  0  0
  -11.5292    3.9773    1.1055 N   0  0  0  0  0  0  0  0  0  0  0  0
  -12.7127    4.5959    0.8919 C   0  0  0  0  0  0  0  0  0  0  0  0
  -13.8567    4.0152    0.9281 N   0  0  0  0  0  0  0  0  0  0  0  0
  -12.5519    5.9138    0.6412 N   0  0  0  0  0  0  0  0  0  0  0  0
   -8.1969    0.4697    0.0483 C   0  0  0  0  0  0  0  0  0  0  0  0
   -7.2699   -0.2158    0.4819 O   0  0  0  0  0  0  0  0  0  0  0  0
   -8.0421    1.4505   -0.9274 N   0  0  0  0  0  0  0  0  0  0  0  0
   -6.7240    1.5827   -1.5519 C   0  0  1  0  0  0  0  0  0  0  0  0
   -6.8127    2.2328   -2.9504 C   0  0  0  0  0  0  0  0  0  0  0  0
   -7.1170    3.7305   -3.0517 C   0  0  0  0  0  0  0  0  0  0  0  0
   -8.5003    4.1639   -2.5719 C   0  0  0  0  0  0  0  0  0  0  0  0
   -8.5634    5.6199   -2.5802 N   0  0  0  0  0  0  0  0  0  0  0  0
   -9.5804    6.3276   -2.0377 C   0  0  0  0  0  0  0  0  0  0  0  0
  -10.3790    5.9890   -1.0958 N   0  0  0  0  0  0  0  0  0  0  0  0
   -9.7033    7.5401   -2.6146 N   0  0  0  0  0  0  0  0  0  0  0  0
   -5.6923    2.3122   -0.6489 C   0  0  0  0  0  0  0  0  0  0  0  0
   -4.5097    1.9706   -0.6173 O   0  0  0  0  0  0  0  0  0  0  0  0
   -6.1345    3.4711   -0.0344 N   0  0  0  0  0  0  0  0  0  0  0  0
   -5.1828    4.4105    0.5723 C   0  0  2  0  0  0  0  0  0  0  0  0
   -5.8187    5.4947    1.4643 C   0  0  0  0  0  0  0  0  0  0  0  0
   -5.2439    5.9027    2.4763 O   0  0  0  0  0  0  0  0  0  0  0  0
   -6.9357    6.1393    0.9645 N   0  0  0  0  0  0  0  0  0  0  0  0
   -7.6631    7.1201    1.7921 C   0  0  1  0  0  0  0  0  0  0  0  0
   -7.9757    8.3869    0.9913 C   0  0  0  0  0  0  0  0  0  0  0  0
   -6.7103    9.1417    0.5794 C   0  0  0  0  0  0  0  0  0  0  0  0
   -6.9942   10.4456   -0.1765 C   0  0  0  0  0  0  0  0  0  0  0  0
   -7.9096   10.3223   -1.3983 C   0  0  0  0  0  0  0  0  0  0  0  0
   -7.4287    9.3818   -2.4154 N   0  0  0  0  0  0  0  0  0  0  0  0
   -8.9577    6.4676    2.2669 C   0  0  0  0  0  0  0  0  0  0  0  0
   -9.3471    5.3513    1.9534 O   0  0  0  0  0  0  0  0  0  0  0  0
   -9.6951    7.2463    3.0805 O   0  0  0  0  0  0  0  0  0  0  0  0
   -4.3053    5.1483   -0.4708 C   0  0  0  0  0  0  0  0  0  0  0  0
   -3.2926    4.3040   -1.0833 N   0  0  0  0  0  0  0  0  0  0  0  0
   -2.2212    4.8706   -1.7295 C   0  0  0  0  0  0  0  0  0  0  0  0
   -2.2252    6.0209   -2.1579 O   0  0  0  0  0  0  0  0  0  0  0  0
    4.7705   -2.9381    3.4512 H   0  0  0  0  0  0  0  0  0  0  0  0
    5.2393   -3.4895    1.8415 H   0  0  0  0  0  0  0  0  0  0  0  0
    6.3827   -2.5531    2.8185 H   0  0  0  0  0  0  0  0  0  0  0  0
    4.8646   -0.5525    2.6858 H   0  0  0  0  0  0  0  0  0  0  0  0
    5.8664   -1.7166    0.1492 H   0  0  0  0  0  0  0  0  0  0  0  0
    6.7876    1.6727   -0.6686 H   0  0  0  0  0  0  0  0  0  0  0  0
    6.6364    0.8822   -2.9866 H   0  0  0  0  0  0  0  0  0  0  0  0
    5.0925    1.3088   -2.2730 H   0  0  0  0  0  0  0  0  0  0  0  0
    4.5653   -1.1153   -1.9488 H   0  0  0  0  0  0  0  0  0  0  0  0
    4.6843   -0.5409   -3.5847 H   0  0  0  0  0  0  0  0  0  0  0  0
    5.7769   -2.5537   -3.8038 H   0  0  0  0  0  0  0  0  0  0  0  0
    7.0998   -1.4109   -3.6691 H   0  0  0  0  0  0  0  0  0  0  0  0
    7.7167   -3.0661   -2.3082 H   0  0  0  0  0  0  0  0  0  0  0  0
    4.4540   -4.2247   -0.5963 H   0  0  0  0  0  0  0  0  0  0  0  0
    7.4922   -4.9830   -1.5448 H   0  0  0  0  0  0  0  0  0  0  0  0
    6.1774   -5.4228   -0.6261 H   0  0  0  0  0  0  0  0  0  0  0  0
    7.6935   -1.1439   -0.9458 H   0  0  0  0  0  0  0  0  0  0  0  0
   10.2393   -1.0520   -1.1412 H   0  0  0  0  0  0  0  0  0  0  0  0
    9.2458   -1.1973    1.7014 H   0  0  0  0  0  0  0  0  0  0  0  0
   10.9445   -1.6011    1.5633 H   0  0  0  0  0  0  0  0  0  0  0  0
    9.3004   -3.5309    1.4206 H   0  0  0  0  0  0  0  0  0  0  0  0
    8.7807   -2.9097   -0.1289 H   0  0  0  0  0  0  0  0  0  0  0  0
   11.5086   -4.0320    0.6642 H   0  0  0  0  0  0  0  0  0  0  0  0
   11.3543   -3.0835   -0.8010 H   0  0  0  0  0  0  0  0  0  0  0  0
    9.7814   -5.5128   -0.1799 H   0  0  0  0  0  0  0  0  0  0  0  0
   10.7546   -3.3492   -2.6903 H   0  0  0  0  0  0  0  0  0  0  0  0
    8.9474   -6.0064   -3.3498 H   0  0  0  0  0  0  0  0  0  0  0  0
    9.4727   -6.8099   -2.0213 H   0  0  0  0  0  0  0  0  0  0  0  0
   11.1185    1.3160    0.1021 H   0  0  0  0  0  0  0  0  0  0  0  0
   14.4105    0.9692   -0.8348 H   0  0  0  0  0  0  0  0  0  0  0  0
   14.7159    1.7343    1.6820 H   0  0  0  0  0  0  0  0  0  0  0  0
   13.4164    0.6517    2.0825 H   0  0  0  0  0  0  0  0  0  0  0  0
   16.9352    0.9401    1.0246 H   0  0  0  0  0  0  0  0  0  0  0  0
   18.5829   -0.8502    1.3132 H   0  0  0  0  0  0  0  0  0  0  0  0
   19.1179   -3.2164    1.8600 H   0  0  0  0  0  0  0  0  0  0  0  0
   18.3694   -5.4873    2.4641 H   0  0  0  0  0  0  0  0  0  0  0  0
   15.9517   -5.9671    2.7560 H   0  0  0  0  0  0  0  0  0  0  0  0
   14.2860   -4.1755    2.4434 H   0  0  0  0  0  0  0  0  0  0  0  0
   13.7538   -1.8131    1.9447 H   0  0  0  0  0  0  0  0  0  0  0  0
   12.8890    2.8611    0.7632 H   0  0  0  0  0  0  0  0  0  0  0  0
   13.2722    5.0687   -0.4858 H   0  0  0  0  0  0  0  0  0  0  0  0
   13.1250    5.2998   -2.9593 H   0  0  0  0  0  0  0  0  0  0  0  0
   12.1117    6.4192   -2.0571 H   0  0  0  0  0  0  0  0  0  0  0  0
   10.5759    5.7841   -3.6116 H   0  0  0  0  0  0  0  0  0  0  0  0
   11.2948    4.2141   -3.8954 H   0  0  0  0  0  0  0  0  0  0  0  0
   10.1492    3.1674   -2.2017 H   0  0  0  0  0  0  0  0  0  0  0  0
    8.9628    4.3666   -2.6773 H   0  0  0  0  0  0  0  0  0  0  0  0
    9.6311    5.8284   -0.8013 H   0  0  0  0  0  0  0  0  0  0  0  0
    9.2175    4.2023   -0.2370 H   0  0  0  0  0  0  0  0  0  0  0  0
   10.6081    4.9185    3.1525 H   0  0  0  0  0  0  0  0  0  0  0  0
   12.2120    6.7489    2.6745 H   0  0  0  0  0  0  0  0  0  0  0  0
   10.7163    7.2991    3.4175 H   0  0  0  0  0  0  0  0  0  0  0  0
   11.3523    9.6587    1.0024 H   0  0  0  0  0  0  0  0  0  0  0  0
    8.7243    4.5784    1.5705 H   0  0  0  0  0  0  0  0  0  0  0  0
    6.5696    4.6212    2.5225 H   0  0  0  0  0  0  0  0  0  0  0  0
    6.0817    6.1122    3.3241 H   0  0  0  0  0  0  0  0  0  0  0  0
    6.3056    7.7726   -0.2203 H   0  0  0  0  0  0  0  0  0  0  0  0
    7.8274    7.2544    0.4909 H   0  0  0  0  0  0  0  0  0  0  0  0
    6.6846    8.2506    1.4476 H   0  0  0  0  0  0  0  0  0  0  0  0
    4.6369    6.7068   -1.0437 H   0  0  0  0  0  0  0  0  0  0  0  0
    4.3289    8.4866    1.0577 H   0  0  0  0  0  0  0  0  0  0  0  0
    3.2948    8.6278   -0.3762 H   0  0  0  0  0  0  0  0  0  0  0  0
    2.6730    7.1642    2.2316 H   0  0  0  0  0  0  0  0  0  0  0  0
    1.7005    8.4279    1.4610 H   0  0  0  0  0  0  0  0  0  0  0  0
    0.9487    6.9751   -0.2298 H   0  0  0  0  0  0  0  0  0  0  0  0
    1.2357    5.7201    1.0133 H   0  0  0  0  0  0  0  0  0  0  0  0
    0.2336    5.8587   -1.8312 H   0  0  0  0  0  0  0  0  0  0  0  0
   -1.8613    2.1115   -1.7344 H   0  0  0  0  0  0  0  0  0  0  0  0
    2.4187    2.2317   -1.1346 H   0  0  0  0  0  0  0  0  0  0  0  0
    2.2970    0.2605   -1.6083 H   0  0  0  0  0  0  0  0  0  0  0  0
    2.2042   -2.0442   -2.1290 H   0  0  0  0  0  0  0  0  0  0  0  0
    0.4514   -2.0467   -1.9177 H   0  0  0  0  0  0  0  0  0  0  0  0
    0.9453   -1.4196    0.6032 H   0  0  0  0  0  0  0  0  0  0  0  0
    3.6797   -2.3203   -0.1954 H   0  0  0  0  0  0  0  0  0  0  0  0
   -0.8079   -2.7344    0.3839 H   0  0  0  0  0  0  0  0  0  0  0  0
   -0.4294   -5.6612    0.1820 H   0  0  0  0  0  0  0  0  0  0  0  0
   -2.0479   -4.1316    2.3311 H   0  0  0  0  0  0  0  0  0  0  0  0
   -2.5489   -5.7167    1.8144 H   0  0  0  0  0  0  0  0  0  0  0  0
    0.4309   -3.9012    3.2451 H   0  0  0  0  0  0  0  0  0  0  0  0
    1.9281   -4.9348    4.9006 H   0  0  0  0  0  0  0  0  0  0  0  0
    1.6480   -7.3233    5.5242 H   0  0  0  0  0  0  0  0  0  0  0  0
   -0.1429   -8.6786    4.4703 H   0  0  0  0  0  0  0  0  0  0  0  0
   -1.6521   -7.6612    2.8051 H   0  0  0  0  0  0  0  0  0  0  0  0
   -2.8472   -6.5203   -0.2478 H   0  0  0  0  0  0  0  0  0  0  0  0
   -4.2796   -4.5408   -1.9319 H   0  0  0  0  0  0  0  0  0  0  0  0
   -5.3984   -6.2379   -3.1550 H   0  0  0  0  0  0  0  0  0  0  0  0
   -3.6950   -6.6027   -3.2944 H   0  0  0  0  0  0  0  0  0  0  0  0
   -2.7134   -8.5255   -1.8811 H   0  0  0  0  0  0  0  0  0  0  0  0
   -3.1797  -10.7506   -0.9614 H   0  0  0  0  0  0  0  0  0  0  0  0
   -4.8101  -12.4859   -0.2221 H   0  0  0  0  0  0  0  0  0  0  0  0
   -7.1422  -13.2201    0.0869 H   0  0  0  0  0  0  0  0  0  0  0  0
   -9.0167  -11.7215   -0.5481 H   0  0  0  0  0  0  0  0  0  0  0  0
   -8.5569   -9.5042   -1.5084 H   0  0  0  0  0  0  0  0  0  0  0  0
   -6.9456   -7.7647   -2.1861 H   0  0  0  0  0  0  0  0  0  0  0  0
   -6.5754   -4.4774   -1.5084 H   0  0  0  0  0  0  0  0  0  0  0  0
   -8.0009   -6.2092   -0.1384 H   0  0  0  0  0  0  0  0  0  0  0  0
   -8.3020   -4.2984    2.0520 H   0  0  0  0  0  0  0  0  0  0  0  0
   -6.6029   -4.5917    1.8896 H   0  0  0  0  0  0  0  0  0  0  0  0
   -7.4148   -6.1628    3.4501 H   0  0  0  0  0  0  0  0  0  0  0  0
   -7.0393   -7.0982    2.0086 H   0  0  0  0  0  0  0  0  0  0  0  0
   -9.8480   -6.1344    2.7809 H   0  0  0  0  0  0  0  0  0  0  0  0
   -9.1716   -7.7155    3.2299 H   0  0  0  0  0  0  0  0  0  0  0  0
   -8.8630   -8.1038    0.8025 H   0  0  0  0  0  0  0  0  0  0  0  0
  -12.5639   -8.3855    1.5811 H   0  0  0  0  0  0  0  0  0  0  0  0
  -10.4724   -8.2611   -0.8936 H   0  0  0  0  0  0  0  0  0  0  0  0
  -11.8760   -8.9276   -0.3575 H   0  0  0  0  0  0  0  0  0  0  0  0
  -10.0898   -4.3502    1.0411 H   0  0  0  0  0  0  0  0  0  0  0  0
  -11.0904   -3.5162   -1.5352 H   0  0  0  0  0  0  0  0  0  0  0  0
  -13.0479   -2.6398   -0.2650 H   0  0  0  0  0  0  0  0  0  0  0  0
  -12.1756   -2.7405    1.2443 H   0  0  0  0  0  0  0  0  0  0  0  0
  -12.2479   -5.1515    1.2552 H   0  0  0  0  0  0  0  0  0  0  0  0
  -13.8512   -4.4919    1.0058 H   0  0  0  0  0  0  0  0  0  0  0  0
  -13.6485   -4.9339   -1.4690 H   0  0  0  0  0  0  0  0  0  0  0  0
  -13.6548   -6.3808   -0.4438 H   0  0  0  0  0  0  0  0  0  0  0  0
  -11.0873   -6.0660   -0.5522 H   0  0  0  0  0  0  0  0  0  0  0  0
  -13.3814   -6.7069   -2.9734 H   0  0  0  0  0  0  0  0  0  0  0  0
   -9.7675   -5.9707   -2.5782 H   0  0  0  0  0  0  0  0  0  0  0  0
  -10.1786   -7.2686   -3.4921 H   0  0  0  0  0  0  0  0  0  0  0  0
   -9.3536   -1.7724    0.9877 H   0  0  0  0  0  0  0  0  0  0  0  0
  -10.3265    0.8207   -0.1186 H   0  0  0  0  0  0  0  0  0  0  0  0
   -8.8618    0.5673    2.5518 H   0  0  0  0  0  0  0  0  0  0  0  0
  -10.5918    0.2838    2.5081 H   0  0  0  0  0  0  0  0  0  0  0  0
   -9.3246    2.7913    1.3187 H   0  0  0  0  0  0  0  0  0  0  0  0
   -9.7846    2.6843    3.0115 H   0  0  0  0  0  0  0  0  0  0  0  0
  -12.0670    2.6110    2.6123 H   0  0  0  0  0  0  0  0  0  0  0  0
  -11.9166    1.9377    0.9871 H   0  0  0  0  0  0  0  0  0  0  0  0
  -10.8196    4.6081    1.4864 H   0  0  0  0  0  0  0  0  0  0  0  0
  -14.5929    4.7031    0.7567 H   0  0  0  0  0  0  0  0  0  0  0  0
  -13.3612    6.3460    0.2179 H   0  0  0  0  0  0  0  0  0  0  0  0
  -11.7480    6.0799    0.0182 H   0  0  0  0  0  0  0  0  0  0  0  0
   -8.8255    1.4352   -1.5773 H   0  0  0  0  0  0  0  0  0  0  0  0
   -6.3380    0.5634   -1.6961 H   0  0  0  0  0  0  0  0  0  0  0  0
   -5.8414    2.0777   -3.4438 H   0  0  0  0  0  0  0  0  0  0  0  0
   -7.5474    1.6847   -3.5534 H   0  0  0  0  0  0  0  0  0  0  0  0
   -7.0238    4.0184   -4.1062 H   0  0  0  0  0  0  0  0  0  0  0  0
   -6.3395    4.3028   -2.5414 H   0  0  0  0  0  0  0  0  0  0  0  0
   -9.2794    3.7554   -3.2283 H   0  0  0  0  0  0  0  0  0  0  0  0
   -8.6893    3.8093   -1.5598 H   0  0  0  0  0  0  0  0  0  0  0  0
   -8.3292    6.0007   -3.4915 H   0  0  0  0  0  0  0  0  0  0  0  0
  -10.1714    5.0317   -0.7815 H   0  0  0  0  0  0  0  0  0  0  0  0
  -10.3983    8.0915   -2.1255 H   0  0  0  0  0  0  0  0  0  0  0  0
   -8.8304    8.0803   -2.6522 H   0  0  0  0  0  0  0  0  0  0  0  0
   -7.1009    3.7528   -0.1779 H   0  0  0  0  0  0  0  0  0  0  0  0
   -4.5363    3.8141    1.2309 H   0  0  0  0  0  0  0  0  0  0  0  0
   -7.4559    5.7385    0.1915 H   0  0  0  0  0  0  0  0  0  0  0  0
   -7.0684    7.3614    2.6812 H   0  0  0  0  0  0  0  0  0  0  0  0
   -8.6042    9.0561    1.5868 H   0  0  0  0  0  0  0  0  0  0  0  0
   -8.5634    8.1163    0.1077 H   0  0  0  0  0  0  0  0  0  0  0  0
   -6.0698    8.4928   -0.0282 H   0  0  0  0  0  0  0  0  0  0  0  0
   -6.1260    9.3858    1.4751 H   0  0  0  0  0  0  0  0  0  0  0  0
   -7.4456   11.1642    0.5193 H   0  0  0  0  0  0  0  0  0  0  0  0
   -6.0378   10.8800   -0.4864 H   0  0  0  0  0  0  0  0  0  0  0  0
   -8.0227   11.3113   -1.8586 H   0  0  0  0  0  0  0  0  0  0  0  0
   -8.9123   10.0146   -1.0810 H   0  0  0  0  0  0  0  0  0  0  0  0
   -6.6299    8.8532   -2.0490 H   0  0  0  0  0  0  0  0  0  0  0  0
   -7.0189    9.9252   -3.1828 H   0  0  0  0  0  0  0  0  0  0  0  0
  -10.5307    6.7553    3.2083 H   0  0  0  0  0  0  0  0  0  0  0  0
   -4.9175    5.5789   -1.2760 H   0  0  0  0  0  0  0  0  0  0  0  0
   -3.7885    5.9900    0.0009 H   0  0  0  0  0  0  0  0  0  0  0  0
   -3.1702    3.3880   -0.6358 H   0  0  0  0  0  0  0  0  0  0  0  0
  1  2  1  0
  2  3  1  0
  3  4  1  0
  4  5  2  0
  4  6  1  0
  6  7  1  0
  7  8  1  0
  8  9  1  0
  9 10  1  0
 10 11  1  0
 11 12  2  3
 11 13  1  0
  6 14  1  0
 14 15  1  0
 15 16  2  0
 15 17  1  0
 17 18  1  0
 18 19  1  0
 19 20  1  0
 20 21  1  0
 21 22  1  0
 22 23  2  3
 22 24  1  0
 17 25  1  0
 25 26  1  0
 26 27  2  0
 26 28  1  0
 28 29  1  0
 29 30  1  0
 30 31  1  0
 31 32  2  0
 32 33  1  0
 33 34  2  0
 34 35  1  0
 35 36  2  0
 36 37  1  0
 37 38  2  0
 38 39  1  0
 28 40  1  0
 40 41  1  0
 41 42  2  0
 41 43  1  0
 43 44  1  0
 44 45  1  0
 45 46  1  0
 46 47  1  0
 47 48  1  0
 48 49  1  0
 49 50  2  0
 49 51  1  0
 51 52  1  0
 52 53  1  0
 53 54  2  0
 53 55  1  0
 51 56  1  0
 56 57  1  0
 57 58  2  0
 57 59  1  0
 59 60  1  0
 60 61  1  0
 60 62  1  0
 62 63  2  0
 62 64  1  0
 64 65  1  0
 65 66  1  0
 66 67  1  0
 67 68  1  0
 68 69  1  0
 69 70  2  0
 69 71  1  0
 71 72  1  0
 72 73  2  0
 73 74  1  0
 74 75  2  0
 75 76  1  0
 75 77  1  0
 77 78  2  0
 77 79  1  0
 79 80  1  0
 80 81  1  0
 81 82  1  0
 82 83  1  0
 83 84  2  0
 81 85  1  0
 85 86  2  0
 85 87  1  0
 87 88  1  0
 88 89  1  0
 89 90  1  0
 90 91  2  0
 91 92  1  0
 92 93  2  0
 93 94  1  0
 94 95  2  0
 88 96  1  0
 96 97  2  0
 96 98  1  0
 98 99  1  0
 99100  1  0
100101  1  0
101102  1  0
102103  2  0
103104  1  0
104105  2  0
105106  1  0
106107  2  0
107108  1  0
108109  2  0
109110  1  0
 99111  1  0
111112  2  0
111113  1  0
113114  1  0
114115  1  0
115116  1  0
116117  1  0
117118  1  0
118119  1  0
119120  2  3
119121  1  0
114122  1  0
122123  2  0
122124  1  0
124125  1  0
125126  1  0
126127  1  0
127128  1  0
128129  1  0
129130  1  0
130131  2  3
130132  1  0
125133  1  0
133134  2  0
133135  1  0
135136  1  0
136137  1  0
137138  1  0
138139  1  0
139140  1  0
140141  1  0
141142  2  3
141143  1  0
136144  1  0
144145  2  0
144146  1  0
146147  1  0
147148  1  0
148149  1  0
149150  1  0
150151  1  0
151152  1  0
152153  2  3
152154  1  0
147155  1  0
155156  2  0
155157  1  0
157158  1  0
158159  1  0
159160  2  0
159161  1  0
161162  1  0
162163  1  0
163164  1  0
164165  1  0
165166  1  0
166167  1  0
162168  1  0
168169  2  0
168170  1  0
158171  1  0
171172  1  0
172173  1  0
173174  2  0
 83  2  1  0
 95 90  1  0
110101  2  0
 39 30  2  0
 48 43  1  0
 68 64  1  0
 76 71  2  0
109104  1  0
 38 33  1  0
173 73  1  0
  1175  1  0
  1176  1  0
  1177  1  0
  2178  1  1
  3179  1  0
  6180  1  1
  7181  1  0
  7182  1  0
  8183  1  0
  8184  1  0
  9185  1  0
  9186  1  0
 10187  1  0
 12188  1  0
 13189  1  0
 13190  1  0
 14191  1  0
 17192  1  6
 18193  1  0
 18194  1  0
 19195  1  0
 19196  1  0
 20197  1  0
 20198  1  0
 21199  1  0
 23200  1  0
 24201  1  0
 24202  1  0
 25203  1  0
 28204  1  6
 29205  1  0
 29206  1  0
 31207  1  0
 32208  1  0
 34209  1  0
 35210  1  0
 36211  1  0
 37212  1  0
 39213  1  0
 40214  1  0
 43215  1  1
 44216  1  0
 44217  1  0
 45218  1  0
 45219  1  0
 46220  1  0
 46221  1  0
 47222  1  0
 47223  1  0
 51224  1  1
 52225  1  0
 52226  1  0
 55227  1  0
 56228  1  0
 59229  1  0
 59230  1  0
 61231  1  0
 61232  1  0
 61233  1  0
 64234  1  6
 65235  1  0
 65236  1  0
 66237  1  0
 66238  1  0
 67239  1  0
 67240  1  0
 72241  1  0
 74242  1  0
 76243  1  0
 79244  1  0
 80245  1  0
 80246  1  0
 81247  1  1
 82248  1  0
 87249  1  0
 88250  1  6
 89251  1  0
 89252  1  0
 91253  1  0
 92254  1  0
 93255  1  0
 94256  1  0
 95257  1  0
 98258  1  0
 99259  1  6
100260  1  0
100261  1  0
102262  1  0
103263  1  0
105264  1  0
106265  1  0
107266  1  0
108267  1  0
110268  1  0
113269  1  0
114270  1  1
115271  1  0
115272  1  0
116273  1  0
116274  1  0
117275  1  0
117276  1  0
118277  1  0
120278  1  0
121279  1  0
121280  1  0
124281  1  0
125282  1  6
126283  1  0
126284  1  0
127285  1  0
127286  1  0
128287  1  0
128288  1  0
129289  1  0
131290  1  0
132291  1  0
132292  1  0
135293  1  0
136294  1  6
137295  1  0
137296  1  0
138297  1  0
138298  1  0
139299  1  0
139300  1  0
140301  1  0
142302  1  0
143303  1  0
143304  1  0
146305  1  0
147306  1  6
148307  1  0
148308  1  0
149309  1  0
149310  1  0
150311  1  0
150312  1  0
151313  1  0
153314  1  0
154315  1  0
154316  1  0
157317  1  0
158318  1  1
161319  1  0
162320  1  1
163321  1  0
163322  1  0
164323  1  0
164324  1  0
165325  1  0
165326  1  0
166327  1  0
166328  1  0
167329  1  0
167330  1  0
170331  1  0
171332  1  0
171333  1  0
172334  1  0
M  END
$$$$
