
     RDKit          3D

328338  0  0  0  0  0  0  0  0999 V2000
   -4.0145   -0.7769   -0.6639 C   0  0  0  0  0  0  0  0  0  0  0  0
   -3.7306   -2.2131   -0.2383 C   0  0  2  0  0  0  0  0  0  0  0  0
   -4.7918   -2.7200    0.6328 N   0  0  0  0  0  0  0  0  0  0  0  0
   -6.0811   -2.9432    0.2155 C   0  0  0  0  0  0  0  0  0  0  0  0
   -6.4549   -2.7639   -0.9443 O   0  0  0  0  0  0  0  0  0  0  0  0
   -7.0576   -3.3580    1.3325 C   0  0  2  0  0  0  0  0  0  0  0  0
   -7.3895   -4.8523    1.2741 C   0  0  0  0  0  0  0  0  0  0  0  0
   -6.1973   -5.7438    1.6393 C   0  0  0  0  0  0  0  0  0  0  0  0
   -6.6125   -7.1955    1.9040 C   0  0  0  0  0  0  0  0  0  0  0  0
   -7.3213   -7.7702    0.7704 N   0  0  0  0  0  0  0  0  0  0  0  0
   -6.6696   -8.2040   -0.3323 C   0  0  0  0  0  0  0  0  0  0  0  0
   -5.4186   -8.0652   -0.5595 N   0  0  0  0  0  0  0  0  0  0  0  0
   -7.5157   -8.8156   -1.1858 N   0  0  0  0  0  0  0  0  0  0  0  0
   -8.2594   -2.5453    1.1438 N   0  0  0  0  0  0  0  0  0  0  0  0
   -9.2169   -2.3986    2.1227 C   0  0  0  0  0  0  0  0  0  0  0  0
   -9.1309   -2.9560    3.2127 O   0  0  0  0  0  0  0  0  0  0  0  0
  -10.3239   -1.3809    1.7866 C   0  0  2  0  0  0  0  0  0  0  0  0
  -11.6557   -1.7207    2.4904 C   0  0  0  0  0  0  0  0  0  0  0  0
  -12.4175   -2.8652    1.8526 C   0  0  0  0  0  0  0  0  0  0  0  0
  -13.4744   -2.6042    0.9730 C   0  0  0  0  0  0  0  0  0  0  0  0
  -14.1557   -3.6522    0.3493 C   0  0  0  0  0  0  0  0  0  0  0  0
  -13.8023   -4.9859    0.6002 C   0  0  0  0  0  0  0  0  0  0  0  0
  -14.4768   -6.0518   -0.0181 C   0  0  0  0  0  0  0  0  0  0  0  0
  -14.1200   -7.3750    0.2536 C   0  0  0  0  0  0  0  0  0  0  0  0
  -13.0882   -7.6467    1.1463 C   0  0  0  0  0  0  0  0  0  0  0  0
  -12.4068   -6.5989    1.7649 C   0  0  0  0  0  0  0  0  0  0  0  0
  -12.7508   -5.2630    1.5013 C   0  0  0  0  0  0  0  0  0  0  0  0
  -12.0737   -4.1973    2.1180 C   0  0  0  0  0  0  0  0  0  0  0  0
  -10.4741   -1.1782    0.3390 N   0  0  0  0  0  0  0  0  0  0  0  0
  -10.9881    0.0018   -0.1576 C   0  0  0  0  0  0  0  0  0  0  0  0
  -11.3205    0.9237    0.5868 O   0  0  0  0  0  0  0  0  0  0  0  0
  -11.1494    0.0549   -1.6968 C   0  0  1  0  0  0  0  0  0  0  0  0
  -12.3462   -0.8042   -2.1284 C   0  0  0  0  0  0  0  0  0  0  0  0
  -12.7988   -0.4364   -3.5373 C   0  0  0  0  0  0  0  0  0  0  0  0
  -13.1470    1.0496   -3.6632 C   0  0  0  0  0  0  0  0  0  0  0  0
  -12.6331    1.8921   -2.4933 C   0  0  0  0  0  0  0  0  0  0  0  0
  -11.2950    1.4661   -2.1056 N   0  0  0  0  0  0  0  0  0  0  0  0
  -10.1384    2.2429   -2.1023 C   0  0  0  0  0  0  0  0  0  0  0  0
   -9.0400    1.6779   -2.0474 O   0  0  0  0  0  0  0  0  0  0  0  0
  -10.2512    3.7935   -2.1447 C   0  0  1  0  0  0  0  0  0  0  0  0
  -10.5691    4.4351   -0.7652 C   0  0  2  0  0  0  0  0  0  0  0  0
  -12.0100    4.2687   -0.3064 C   0  0  0  0  0  0  0  0  0  0  0  0
  -10.3643    5.8635   -0.8515 O   0  0  0  0  0  0  0  0  0  0  0  0
   -9.0449    4.4019   -2.7536 N   0  0  0  0  0  0  0  0  0  0  0  0
   -7.8517    4.4816   -2.0559 C   0  0  0  0  0  0  0  0  0  0  0  0
   -7.6233    3.8680   -1.0144 O   0  0  0  0  0  0  0  0  0  0  0  0
   -6.8421    5.4804   -2.6628 C   0  0  2  0  0  0  0  0  0  0  0  0
   -6.2349    4.9731   -3.9768 C   0  0  0  0  0  0  0  0  0  0  0  0
   -5.2504    3.8311   -3.8387 C   0  0  0  0  0  0  0  0  0  0  0  0
   -3.8677    4.0839   -3.8684 C   0  0  0  0  0  0  0  0  0  0  0  0
   -2.9564    3.0327   -3.7603 C   0  0  0  0  0  0  0  0  0  0  0  0
   -3.4249    1.7337   -3.6199 C   0  0  0  0  0  0  0  0  0  0  0  0
   -2.5522    0.7207   -3.5304 F   0  0  0  0  0  0  0  0  0  0  0  0
   -4.7879    1.4646   -3.5792 C   0  0  0  0  0  0  0  0  0  0  0  0
   -5.7012    2.5134   -3.6818 C   0  0  0  0  0  0  0  0  0  0  0  0
   -5.8426    5.8103   -1.6585 N   0  0  0  0  0  0  0  0  0  0  0  0
   -6.2417    6.4923   -0.5226 C   0  0  0  0  0  0  0  0  0  0  0  0
   -7.3440    7.0362   -0.4442 O   0  0  0  0  0  0  0  0  0  0  0  0
   -5.1771    6.5529    0.5954 C   0  0  1  0  0  0  0  0  0  0  0  0
   -5.8355    6.4177    1.9827 C   0  0  0  0  0  0  0  0  0  0  0  0
   -6.2388    7.7352    2.6028 C   0  0  0  0  0  0  0  0  0  0  0  0
   -7.5828    8.1304    2.6288 C   0  0  0  0  0  0  0  0  0  0  0  0
   -7.9525    9.3421    3.2141 C   0  0  0  0  0  0  0  0  0  0  0  0
   -6.9862   10.1727    3.7772 C   0  0  0  0  0  0  0  0  0  0  0  0
   -5.6454    9.7943    3.7493 C   0  0  0  0  0  0  0  0  0  0  0  0
   -5.2716    8.5824    3.1669 C   0  0  0  0  0  0  0  0  0  0  0  0
   -4.1290    5.5159    0.4303 N   0  0  0  0  0  0  0  0  0  0  0  0
   -2.9116    5.8545   -0.1205 C   0  0  0  0  0  0  0  0  0  0  0  0
   -2.7116    6.8747   -0.7627 O   0  0  0  0  0  0  0  0  0  0  0  0
   -1.7716    4.9714    0.2218 C   0  0  0  0  0  0  0  0  0  0  0  0
   -1.8106    3.5833    0.0902 C   0  0  0  0  0  0  0  0  0  0  0  0
   -0.6852    2.8542    0.4841 C   0  0  0  0  0  0  0  0  0  0  0  0
    0.4589    3.4817    1.0096 C   0  0  0  0  0  0  0  0  0  0  0  0
    0.4925    4.8699    1.1314 C   0  0  0  0  0  0  0  0  0  0  0  0
   -0.6252    5.6092    0.7241 C   0  0  0  0  0  0  0  0  0  0  0  0
    1.6345    5.6186    1.7280 C   0  0  0  0  0  0  0  0  0  0  0  0
    1.5173    6.8160    1.9789 O   0  0  0  0  0  0  0  0  0  0  0  0
    2.8028    4.9359    1.9870 N   0  0  0  0  0  0  0  0  0  0  0  0
    3.9566    5.6516    2.5115 C   0  0  0  0  0  0  0  0  0  0  0  0
    4.7112    6.4322    1.4222 C   0  0  1  0  0  0  0  0  0  0  0  0
    5.7598    7.3624    2.0677 C   0  0  0  0  0  0  0  0  0  0  0  0
    6.9682    7.2200    1.8919 O   0  0  0  0  0  0  0  0  0  0  0  0
    5.2283    8.3931    2.8183 N   0  0  0  0  0  0  0  0  0  0  0  0
    6.0887    9.2519    3.6467 C   0  0  1  0  0  0  0  0  0  0  0  0
    5.3878   10.6048    3.8518 C   0  0  0  0  0  0  0  0  0  0  0  0
    6.3436   11.7212    4.2860 C   0  0  0  0  0  0  0  0  0  0  0  0
    5.6643   13.0956    4.3702 C   0  0  0  0  0  0  0  0  0  0  0  0
    4.5428   13.2199    5.4070 C   0  0  0  0  0  0  0  0  0  0  0  0
    5.0244   13.0183    6.7657 N   0  0  0  0  0  0  0  0  0  0  0  0
    6.3723    8.5805    5.0051 C   0  0  0  0  0  0  0  0  0  0  0  0
    7.0883    9.0185    5.8910 O   0  0  0  0  0  0  0  0  0  0  0  0
    5.7054    7.4203    5.2023 O   0  0  0  0  0  0  0  0  0  0  0  0
    5.3654    5.6483    0.3526 N   0  0  0  0  0  0  0  0  0  0  0  0
    5.7484    4.3265    0.4530 C   0  0  0  0  0  0  0  0  0  0  0  0
    5.2946    3.5460    1.2861 O   0  0  0  0  0  0  0  0  0  0  0  0
    6.7614    3.8730   -0.6222 C   0  0  2  0  0  0  0  0  0  0  0  0
    6.0522    3.4743   -1.9231 C   0  0  0  0  0  0  0  0  0  0  0  0
    5.7777    4.6313   -2.8979 C   0  0  0  0  0  0  0  0  0  0  0  0
    6.9855    5.4963   -3.2709 C   0  0  0  0  0  0  0  0  0  0  0  0
    8.1161    4.6980   -3.7046 N   0  0  0  0  0  0  0  0  0  0  0  0
    8.2775    4.3007   -4.9837 C   0  0  0  0  0  0  0  0  0  0  0  0
    7.5908    4.7188   -5.9799 N   0  0  0  0  0  0  0  0  0  0  0  0
    9.2875    3.4175   -5.1081 N   0  0  0  0  0  0  0  0  0  0  0  0
    7.5544    2.7662   -0.0917 N   0  0  0  0  0  0  0  0  0  0  0  0
    8.8135    2.5001   -0.5846 C   0  0  0  0  0  0  0  0  0  0  0  0
    9.2468    3.0383   -1.6054 O   0  0  0  0  0  0  0  0  0  0  0  0
    9.6662    1.5611    0.2999 C   0  0  2  0  0  0  0  0  0  0  0  0
   11.1059    1.4710   -0.2299 C   0  0  0  0  0  0  0  0  0  0  0  0
   12.0607    0.7500    0.7398 C   0  0  0  0  0  0  0  0  0  0  0  0
   12.3420   -0.6939    0.3315 C   0  0  0  0  0  0  0  0  0  0  0  0
   13.2408   -0.7259   -0.8089 N   0  0  0  0  0  0  0  0  0  0  0  0
   13.6445   -1.8683   -1.3970 C   0  0  0  0  0  0  0  0  0  0  0  0
   13.2878   -3.0447   -1.0316 N   0  0  0  0  0  0  0  0  0  0  0  0
   14.4491   -1.6320   -2.4506 N   0  0  0  0  0  0  0  0  0  0  0  0
    9.0552    0.2428    0.4472 N   0  0  0  0  0  0  0  0  0  0  0  0
    8.1214    0.0029    1.4375 C   0  0  0  0  0  0  0  0  0  0  0  0
    7.7971    0.8841    2.2346 O   0  0  0  0  0  0  0  0  0  0  0  0
    7.7183   -1.4733    1.6227 C   0  0  2  0  0  0  0  0  0  0  0  0
    8.7247   -2.0999    2.6014 C   0  0  0  0  0  0  0  0  0  0  0  0
    8.3501   -3.5099    3.0808 C   0  0  0  0  0  0  0  0  0  0  0  0
    8.9153   -4.6629    2.2443 C   0  0  0  0  0  0  0  0  0  0  0  0
   10.3711   -4.6277    2.1564 N   0  0  0  0  0  0  0  0  0  0  0  0
   11.1675   -4.8453    3.2272 C   0  0  0  0  0  0  0  0  0  0  0  0
   10.7842   -5.3018    4.3583 N   0  0  0  0  0  0  0  0  0  0  0  0
   12.4505   -4.5194    2.9663 N   0  0  0  0  0  0  0  0  0  0  0  0
    7.6827   -2.1856    0.3499 N   0  0  0  0  0  0  0  0  0  0  0  0
    6.4961   -2.3874   -0.3298 C   0  0  0  0  0  0  0  0  0  0  0  0
    5.4237   -1.9148    0.0386 O   0  0  0  0  0  0  0  0  0  0  0  0
    6.6324   -3.2400   -1.5993 C   0  0  2  0  0  0  0  0  0  0  0  0
    6.5592   -2.3813   -2.8659 C   0  0  0  0  0  0  0  0  0  0  0  0
    7.6320   -1.2936   -3.0270 C   0  0  0  0  0  0  0  0  0  0  0  0
    9.0426   -1.7833   -3.3728 C   0  0  0  0  0  0  0  0  0  0  0  0
    9.7718   -2.2093   -2.1832 N   0  0  0  0  0  0  0  0  0  0  0  0
   10.0181   -3.5214   -1.9406 C   0  0  0  0  0  0  0  0  0  0  0  0
    9.5849   -4.4884   -2.6603 N   0  0  0  0  0  0  0  0  0  0  0  0
   10.6609   -3.7054   -0.7677 N   0  0  0  0  0  0  0  0  0  0  0  0
    5.5879   -4.2632   -1.6172 N   0  0  0  0  0  0  0  0  0  0  0  0
    5.8094   -5.5002   -1.0483 C   0  0  0  0  0  0  0  0  0  0  0  0
    6.8589   -5.8006   -0.4794 O   0  0  0  0  0  0  0  0  0  0  0  0
    4.6683   -6.5187   -1.1993 C   0  0  2  0  0  0  0  0  0  0  0  0
    4.3473   -6.7427   -2.6875 C   0  0  0  0  0  0  0  0  0  0  0  0
    3.4203   -7.9101   -2.9433 C   0  0  0  0  0  0  0  0  0  0  0  0
    3.8831   -9.2277   -2.8456 C   0  0  0  0  0  0  0  0  0  0  0  0
    3.0220  -10.2984   -3.0915 C   0  0  0  0  0  0  0  0  0  0  0  0
    1.6816  -10.0768   -3.4409 C   0  0  0  0  0  0  0  0  0  0  0  0
    0.8023  -11.1420   -3.6922 C   0  0  0  0  0  0  0  0  0  0  0  0
   -0.5291  -10.9005   -4.0365 C   0  0  0  0  0  0  0  0  0  0  0  0
   -0.9980   -9.5938   -4.1310 C   0  0  0  0  0  0  0  0  0  0  0  0
   -0.1348   -8.5243   -3.8841 C   0  0  0  0  0  0  0  0  0  0  0  0
    1.2045   -8.7509   -3.5398 C   0  0  0  0  0  0  0  0  0  0  0  0
    2.0814   -7.6826   -3.2906 C   0  0  0  0  0  0  0  0  0  0  0  0
    3.5381   -6.2001   -0.3272 N   0  0  0  0  0  0  0  0  0  0  0  0
    2.5971   -5.2264   -0.5546 C   0  0  0  0  0  0  0  0  0  0  0  0
    2.6341   -4.4947   -1.5438 O   0  0  0  0  0  0  0  0  0  0  0  0
    1.4991   -5.1159    0.5313 C   0  0  2  0  0  0  0  0  0  0  0  0
    0.5703   -6.3412    0.5569 C   0  0  0  0  0  0  0  0  0  0  0  0
    1.1508   -7.5419    1.2673 C   0  0  0  0  0  0  0  0  0  0  0  0
    1.3792   -8.7361    0.5698 C   0  0  0  0  0  0  0  0  0  0  0  0
    1.9458   -9.8346    1.2155 C   0  0  0  0  0  0  0  0  0  0  0  0
    2.2805   -9.7585    2.5651 C   0  0  0  0  0  0  0  0  0  0  0  0
    2.0391   -8.5823    3.2746 C   0  0  0  0  0  0  0  0  0  0  0  0
    1.4715   -7.4813    2.6316 C   0  0  0  0  0  0  0  0  0  0  0  0
    0.7128   -3.9073    0.2794 N   0  0  0  0  0  0  0  0  0  0  0  0
    0.6275   -2.8908    1.2079 C   0  0  0  0  0  0  0  0  0  0  0  0
    1.1529   -2.9632    2.3174 O   0  0  0  0  0  0  0  0  0  0  0  0
   -0.0418   -1.6047    0.6802 C   0  0  2  0  0  0  0  0  0  0  0  0
   -0.1987   -0.5809    1.8220 C   0  0  0  0  0  0  0  0  0  0  0  0
   -0.8426    0.7041    1.5219 N   0  0  0  0  0  0  0  0  0  0  0  0
   -0.6332    1.3864    0.3466 C   0  0  0  0  0  0  0  0  0  0  0  0
   -0.3331    0.8925   -0.7316 O   0  0  0  0  0  0  0  0  0  0  0  0
   -1.2727   -1.8617   -0.0777 N   0  0  0  0  0  0  0  0  0  0  0  0
   -2.4126   -2.2932    0.5678 C   0  0  0  0  0  0  0  0  0  0  0  0
   -2.3927   -2.7399    1.7162 O   0  0  0  0  0  0  0  0  0  0  0  0
   -4.0712   -0.1093    0.2054 H   0  0  0  0  0  0  0  0  0  0  0  0
   -3.2357   -0.3905   -1.3274 H   0  0  0  0  0  0  0  0  0  0  0  0
   -4.9652   -0.6983   -1.1993 H   0  0  0  0  0  0  0  0  0  0  0  0
   -3.6591   -2.8736   -1.1100 H   0  0  0  0  0  0  0  0  0  0  0  0
   -4.5070   -2.9745    1.5767 H   0  0  0  0  0  0  0  0  0  0  0  0
   -6.6400   -3.0978    2.3118 H   0  0  0  0  0  0  0  0  0  0  0  0
   -7.7535   -5.1144    0.2719 H   0  0  0  0  0  0  0  0  0  0  0  0
   -8.2137   -5.0684    1.9642 H   0  0  0  0  0  0  0  0  0  0  0  0
   -5.4511   -5.7029    0.8377 H   0  0  0  0  0  0  0  0  0  0  0  0
   -5.7137   -5.3585    2.5455 H   0  0  0  0  0  0  0  0  0  0  0  0
   -7.2774   -7.2223    2.7758 H   0  0  0  0  0  0  0  0  0  0  0  0
   -5.7355   -7.8017    2.1631 H   0  0  0  0  0  0  0  0  0  0  0  0
   -8.0524   -8.4101    1.0563 H   0  0  0  0  0  0  0  0  0  0  0  0
   -5.1740   -8.5055   -1.4464 H   0  0  0  0  0  0  0  0  0  0  0  0
   -8.4263   -8.3689   -1.2068 H   0  0  0  0  0  0  0  0  0  0  0  0
   -7.1505   -8.9239   -2.1235 H   0  0  0  0  0  0  0  0  0  0  0  0
   -8.2968   -1.9432    0.3246 H   0  0  0  0  0  0  0  0  0  0  0  0
   -9.9660   -0.4308    2.2078 H   0  0  0  0  0  0  0  0  0  0  0  0
  -12.3009   -0.8312    2.4899 H   0  0  0  0  0  0  0  0  0  0  0  0
  -11.4864   -1.9548    3.5497 H   0  0  0  0  0  0  0  0  0  0  0  0
  -13.7767   -1.5792    0.7699 H   0  0  0  0  0  0  0  0  0  0  0  0
  -14.9705   -3.4183   -0.3318 H   0  0  0  0  0  0  0  0  0  0  0  0
  -15.2888   -5.8605   -0.7145 H   0  0  0  0  0  0  0  0  0  0  0  0
  -14.6549   -8.1909   -0.2256 H   0  0  0  0  0  0  0  0  0  0  0  0
  -12.8147   -8.6765    1.3645 H   0  0  0  0  0  0  0  0  0  0  0  0
  -11.6049   -6.8297    2.4627 H   0  0  0  0  0  0  0  0  0  0  0  0
  -11.2687   -4.4106    2.8211 H   0  0  0  0  0  0  0  0  0  0  0  0
  -10.4604   -2.0025   -0.2504 H   0  0  0  0  0  0  0  0  0  0  0  0
  -10.2354   -0.3478   -2.1503 H   0  0  0  0  0  0  0  0  0  0  0  0
  -12.0803   -1.8672   -2.0860 H   0  0  0  0  0  0  0  0  0  0  0  0
  -13.1880   -0.6689   -1.4380 H   0  0  0  0  0  0  0  0  0  0  0  0
  -11.9957   -0.6773   -4.2442 H   0  0  0  0  0  0  0  0  0  0  0  0
  -13.6615   -1.0460   -3.8304 H   0  0  0  0  0  0  0  0  0  0  0  0
  -14.2336    1.1737   -3.7404 H   0  0  0  0  0  0  0  0  0  0  0  0
  -12.7272    1.4284   -4.6040 H   0  0  0  0  0  0  0  0  0  0  0  0
  -13.2914    1.7652   -1.6243 H   0  0  0  0  0  0  0  0  0  0  0  0
  -12.6725    2.9434   -2.7772 H   0  0  0  0  0  0  0  0  0  0  0  0
  -11.0288    4.0726   -2.8603 H   0  0  0  0  0  0  0  0  0  0  0  0
   -9.9100    4.0457    0.0185 H   0  0  0  0  0  0  0  0  0  0  0  0
  -12.2560    3.2296   -0.0876 H   0  0  0  0  0  0  0  0  0  0  0  0
  -12.1874    4.8503    0.6060 H   0  0  0  0  0  0  0  0  0  0  0  0
  -12.7111    4.6539   -1.0542 H   0  0  0  0  0  0  0  0  0  0  0  0
   -9.4397    6.0393   -0.5802 H   0  0  0  0  0  0  0  0  0  0  0  0
   -9.2479    5.1960   -3.3467 H   0  0  0  0  0  0  0  0  0  0  0  0
   -7.4014    6.4026   -2.8778 H   0  0  0  0  0  0  0  0  0  0  0  0
   -5.7273    5.8088   -4.4750 H   0  0  0  0  0  0  0  0  0  0  0  0
   -7.0274    4.6612   -4.6693 H   0  0  0  0  0  0  0  0  0  0  0  0
   -3.4962    5.0984   -3.9930 H   0  0  0  0  0  0  0  0  0  0  0  0
   -1.8863    3.2171   -3.7926 H   0  0  0  0  0  0  0  0  0  0  0  0
   -5.1344    0.4419   -3.4716 H   0  0  0  0  0  0  0  0  0  0  0  0
   -6.7658    2.2852   -3.6431 H   0  0  0  0  0  0  0  0  0  0  0  0
   -5.1081    5.1302   -1.4891 H   0  0  0  0  0  0  0  0  0  0  0  0
   -4.6955    7.5330    0.4968 H   0  0  0  0  0  0  0  0  0  0  0  0
   -5.1409    5.9395    2.6890 H   0  0  0  0  0  0  0  0  0  0  0  0
   -6.7038    5.7460    1.9354 H   0  0  0  0  0  0  0  0  0  0  0  0
   -8.3512    7.4999    2.1836 H   0  0  0  0  0  0  0  0  0  0  0  0
   -8.9992    9.6384    3.2255 H   0  0  0  0  0  0  0  0  0  0  0  0
   -7.2768   11.1172    4.2287 H   0  0  0  0  0  0  0  0  0  0  0  0
   -4.8892   10.4447    4.1809 H   0  0  0  0  0  0  0  0  0  0  0  0
   -4.2196    8.3029    3.1551 H   0  0  0  0  0  0  0  0  0  0  0  0
   -4.2230    4.6680    0.9771 H   0  0  0  0  0  0  0  0  0  0  0  0
   -2.6767    3.0796   -0.3279 H   0  0  0  0  0  0  0  0  0  0  0  0
    1.3003    2.8633    1.3129 H   0  0  0  0  0  0  0  0  0  0  0  0
   -0.6195    6.6956    0.8156 H   0  0  0  0  0  0  0  0  0  0  0  0
    3.0056    4.0289    1.5841 H   0  0  0  0  0  0  0  0  0  0  0  0
    4.6007    4.9343    3.0313 H   0  0  0  0  0  0  0  0  0  0  0  0
    3.5899    6.3287    3.2885 H   0  0  0  0  0  0  0  0  0  0  0  0
    4.0148    7.0872    0.8824 H   0  0  0  0  0  0  0  0  0  0  0  0
    4.2592    8.3191    3.1096 H   0  0  0  0  0  0  0  0  0  0  0  0
    7.0466    9.3738    3.1269 H   0  0  0  0  0  0  0  0  0  0  0  0
    4.5838   10.4889    4.5898 H   0  0  0  0  0  0  0  0  0  0  0  0
    4.9113   10.9104    2.9113 H   0  0  0  0  0  0  0  0  0  0  0  0
    7.1588   11.7937    3.5555 H   0  0  0  0  0  0  0  0  0  0  0  0
    6.8108   11.4811    5.2446 H   0  0  0  0  0  0  0  0  0  0  0  0
    5.2516   13.3486    3.3859 H   0  0  0  0  0  0  0  0  0  0  0  0
    6.4324   13.8489    4.5854 H   0  0  0  0  0  0  0  0  0  0  0  0
    3.7321   12.5171    5.1907 H   0  0  0  0  0  0  0  0  0  0  0  0
    4.1156   14.2274    5.3395 H   0  0  0  0  0  0  0  0  0  0  0  0
    5.3742   12.0694    6.8851 H   0  0  0  0  0  0  0  0  0  0  0  0
    4.2521   13.1220    7.4218 H   0  0  0  0  0  0  0  0  0  0  0  0
    6.0267    7.1129    6.0776 H   0  0  0  0  0  0  0  0  0  0  0  0
    5.9413    6.2232   -0.2506 H   0  0  0  0  0  0  0  0  0  0  0  0
    7.4674    4.6949   -0.7762 H   0  0  0  0  0  0  0  0  0  0  0  0
    6.6410    2.7173   -2.4587 H   0  0  0  0  0  0  0  0  0  0  0  0
    5.0969    2.9864   -1.6914 H   0  0  0  0  0  0  0  0  0  0  0  0
    4.9992    5.2799   -2.4790 H   0  0  0  0  0  0  0  0  0  0  0  0
    5.3539    4.2011   -3.8146 H   0  0  0  0  0  0  0  0  0  0  0  0
    7.2965    6.0970   -2.4101 H   0  0  0  0  0  0  0  0  0  0  0  0
    6.6975    6.2182   -4.0429 H   0  0  0  0  0  0  0  0  0  0  0  0
    8.4849    4.0538   -3.0020 H   0  0  0  0  0  0  0  0  0  0  0  0
    7.9058    4.2536   -6.8319 H   0  0  0  0  0  0  0  0  0  0  0  0
    9.9993    3.5313   -4.3986 H   0  0  0  0  0  0  0  0  0  0  0  0
    9.6856    3.3650   -6.0367 H   0  0  0  0  0  0  0  0  0  0  0  0
    7.2795    2.3723    0.8117 H   0  0  0  0  0  0  0  0  0  0  0  0
    9.7089    2.0401    1.2864 H   0  0  0  0  0  0  0  0  0  0  0  0
   11.1152    1.0022   -1.2230 H   0  0  0  0  0  0  0  0  0  0  0  0
   11.4893    2.4913   -0.3690 H   0  0  0  0  0  0  0  0  0  0  0  0
   13.0120    1.2983    0.7760 H   0  0  0  0  0  0  0  0  0  0  0  0
   11.6507    0.7657    1.7556 H   0  0  0  0  0  0  0  0  0  0  0  0
   12.8123   -1.2219    1.1680 H   0  0  0  0  0  0  0  0  0  0  0  0
   11.4049   -1.2045    0.0998 H   0  0  0  0  0  0  0  0  0  0  0  0
   13.1928    0.0731   -1.4300 H   0  0  0  0  0  0  0  0  0  0  0  0
   13.7255   -3.7201   -1.6675 H   0  0  0  0  0  0  0  0  0  0  0  0
   14.9544   -2.4364   -2.8035 H   0  0  0  0  0  0  0  0  0  0  0  0
   15.0894   -0.8597   -2.2974 H   0  0  0  0  0  0  0  0  0  0  0  0
    9.0278   -0.3892   -0.3479 H   0  0  0  0  0  0  0  0  0  0  0  0
    6.7148   -1.4766    2.0641 H   0  0  0  0  0  0  0  0  0  0  0  0
    8.7652   -1.4607    3.4934 H   0  0  0  0  0  0  0  0  0  0  0  0
    9.7354   -2.0787    2.1812 H   0  0  0  0  0  0  0  0  0  0  0  0
    7.2592   -3.6090    3.1319 H   0  0  0  0  0  0  0  0  0  0  0  0
    8.7095   -3.6175    4.1118 H   0  0  0  0  0  0  0  0  0  0  0  0
    8.5073   -4.6272    1.2324 H   0  0  0  0  0  0  0  0  0  0  0  0
    8.5942   -5.6183    2.6743 H   0  0  0  0  0  0  0  0  0  0  0  0
   10.7090   -3.9093    1.5259 H   0  0  0  0  0  0  0  0  0  0  0  0
   11.5703   -5.3501    5.0061 H   0  0  0  0  0  0  0  0  0  0  0  0
   13.1194   -4.8773    3.6335 H   0  0  0  0  0  0  0  0  0  0  0  0
   12.7350   -4.7400    2.0185 H   0  0  0  0  0  0  0  0  0  0  0  0
    8.5398   -2.5800   -0.0364 H   0  0  0  0  0  0  0  0  0  0  0  0
    7.5739   -3.7713   -1.5592 H   0  0  0  0  0  0  0  0  0  0  0  0
    5.5795   -1.8863   -2.8883 H   0  0  0  0  0  0  0  0  0  0  0  0
    6.5787   -3.0318   -3.7497 H   0  0  0  0  0  0  0  0  0  0  0  0
    7.6513   -0.6405   -2.1503 H   0  0  0  0  0  0  0  0  0  0  0  0
    7.3045   -0.6605   -3.8634 H   0  0  0  0  0  0  0  0  0  0  0  0
    9.5907   -0.9381   -3.8067 H   0  0  0  0  0  0  0  0  0  0  0  0
    9.0126   -2.5526   -4.1529 H   0  0  0  0  0  0  0  0  0  0  0  0
   10.5993   -1.6475   -2.0191 H   0  0  0  0  0  0  0  0  0  0  0  0
    9.8180   -5.3856   -2.2299 H   0  0  0  0  0  0  0  0  0  0  0  0
   10.7826   -4.6868   -0.5404 H   0  0  0  0  0  0  0  0  0  0  0  0
   11.6131   -3.3085   -0.7971 H   0  0  0  0  0  0  0  0  0  0  0  0
    4.6161   -3.9591   -1.6959 H   0  0  0  0  0  0  0  0  0  0  0  0
    5.0681   -7.4603   -0.7954 H   0  0  0  0  0  0  0  0  0  0  0  0
    3.9319   -5.8396   -3.1505 H   0  0  0  0  0  0  0  0  0  0  0  0
    5.2801   -6.9309   -3.2383 H   0  0  0  0  0  0  0  0  0  0  0  0
    4.9199   -9.4287   -2.5861 H   0  0  0  0  0  0  0  0  0  0  0  0
    3.4083  -11.3107   -3.0129 H   0  0  0  0  0  0  0  0  0  0  0  0
    1.1490  -12.1710   -3.6220 H   0  0  0  0  0  0  0  0  0  0  0  0
   -1.1991  -11.7356   -4.2276 H   0  0  0  0  0  0  0  0  0  0  0  0
   -2.0337   -9.4044   -4.3974 H   0  0  0  0  0  0  0  0  0  0  0  0
   -0.5208   -7.5112   -3.9612 H   0  0  0  0  0  0  0  0  0  0  0  0
    1.7212   -6.6584   -3.3707 H   0  0  0  0  0  0  0  0  0  0  0  0
    3.4984   -6.7121    0.5487 H   0  0  0  0  0  0  0  0  0  0  0  0
    2.0172   -4.9969    1.4891 H   0  0  0  0  0  0  0  0  0  0  0  0
    0.2868   -6.6086   -0.4693 H   0  0  0  0  0  0  0  0  0  0  0  0
   -0.3703   -6.0885    1.0651 H   0  0  0  0  0  0  0  0  0  0  0  0
    1.1208   -8.8193   -0.4836 H   0  0  0  0  0  0  0  0  0  0  0  0
    2.1204  -10.7539    0.6612 H   0  0  0  0  0  0  0  0  0  0  0  0
    2.7169  -10.6169    3.0683 H   0  0  0  0  0  0  0  0  0  0  0  0
    2.2874   -8.5251    4.3316 H   0  0  0  0  0  0  0  0  0  0  0  0
    1.2814   -6.5750    3.2061 H   0  0  0  0  0  0  0  0  0  0  0  0
    0.4707   -3.6915   -0.6823 H   0  0  0  0  0  0  0  0  0  0  0  0
    0.6702   -1.2085   -0.0560 H   0  0  0  0  0  0  0  0  0  0  0  0
   -0.7634   -1.0059    2.6594 H   0  0  0  0  0  0  0  0  0  0  0  0
    0.7946   -0.3324    2.2128 H   0  0  0  0  0  0  0  0  0  0  0  0
   -1.0400    1.2610    2.3439 H   0  0  0  0  0  0  0  0  0  0  0  0
   -1.3876   -1.2447   -0.8759 H   0  0  0  0  0  0  0  0  0  0  0  0
  1  2  1  0
  2  3  1  0
  3  4  1  0
  4  5  2  0
  4  6  1  0
  6  7  1  0
  7  8  1  0
  8  9  1  0
  9 10  1  0
 10 11  1  0
 11 12  2  3
 11 13  1  0
  6 14  1  0
 14 15  1  0
 15 16  2  0
 15 17  1  0
 17 18  1  0
 18 19  1  0
 19 20  1  0
 20 21  2  0
 21 22  1  0
 22 23  2  0
 23 24  1  0
 24 25  2  0
 25 26  1  0
 26 27  2  0
 27 28  1  0
 17 29  1  0
 29 30  1  0
 30 31  2  0
 30 32  1  0
 32 33  1  0
 33 34  1  0
 34 35  1  0
 35 36  1  0
 36 37  1  0
 37 38  1  0
 38 39  2  0
 38 40  1  0
 40 41  1  0
 41 42  1  0
 41 43  1  0
 40 44  1  0
 44 45  1  0
 45 46  2  0
 45 47  1  0
 47 48  1  0
 48 49  1  0
 49 50  1  0
 50 51  2  0
 51 52  1  0
 52 53  1  0
 52 54  2  0
 54 55  1  0
 47 56  1  0
 56 57  1  0
 57 58  2  0
 57 59  1  0
 59 60  1  0
 60 61  1  0
 61 62  2  0
 62 63  1  0
 63 64  2  0
 64 65  1  0
 65 66  2  0
 59 67  1  0
 67 68  1  0
 68 69  2  0
 68 70  1  0
 70 71  2  0
 71 72  1  0
 72 73  2  0
 73 74  1  0
 74 75  2  0
 74 76  1  0
 76 77  2  0
 76 78  1  0
 78 79  1  0
 79 80  1  0
 80 81  1  0
 81 82  2  0
 81 83  1  0
 83 84  1  0
 84 85  1  0
 85 86  1  0
 86 87  1  0
 87 88  1  0
 88 89  1  0
 84 90  1  0
 90 91  2  0
 90 92  1  0
 80 93  1  0
 93 94  1  0
 94 95  2  0
 94 96  1  0
 96 97  1  0
 97 98  1  0
 98 99  1  0
 99100  1  0
100101  1  0
101102  2  3
101103  1  0
 96104  1  0
104105  1  0
105106  2  0
105107  1  0
107108  1  0
108109  1  0
109110  1  0
110111  1  0
111112  1  0
112113  2  3
112114  1  0
107115  1  0
115116  1  0
116117  2  0
116118  1  0
118119  1  0
119120  1  0
120121  1  0
121122  1  0
122123  1  0
123124  2  3
123125  1  0
118126  1  0
126127  1  0
127128  2  0
127129  1  0
129130  1  0
130131  1  0
131132  1  0
132133  1  0
133134  1  0
134135  2  3
134136  1  0
129137  1  0
137138  1  0
138139  2  0
138140  1  0
140141  1  0
141142  1  0
142143  1  0
143144  2  0
144145  1  0
145146  2  0
146147  1  0
147148  2  0
148149  1  0
149150  2  0
150151  1  0
140152  1  0
152153  1  0
153154  2  0
153155  1  0
155156  1  0
156157  1  0
157158  2  0
158159  1  0
159160  2  0
160161  1  0
161162  2  0
155163  1  0
163164  1  0
164165  2  0
164166  1  0
166167  1  0
167168  1  0
168169  1  0
169170  2  0
166171  1  0
171172  1  0
172173  2  0
172  2  1  0
 28 19  2  0
 37 32  1  0
 55 49  2  0
 66 61  1  0
 75 70  1  0
151142  2  0
162157  1  0
 27 22  1  0
169 72  1  0
150145  1  0
  1174  1  0
  1175  1  0
  1176  1  0
  2177  1  6
  3178  1  0
  6179  1  1
  7180  1  0
  7181  1  0
  8182  1  0
  8183  1  0
  9184  1  0
  9185  1  0
 10186  1  0
 12187  1  0
 13188  1  0
 13189  1  0
 14190  1  0
 17191  1  1
 18192  1  0
 18193  1  0
 20194  1  0
 21195  1  0
 23196  1  0
 24197  1  0
 25198  1  0
 26199  1  0
 28200  1  0
 29201  1  0
 32202  1  6
 33203  1  0
 33204  1  0
 34205  1  0
 34206  1  0
 35207  1  0
 35208  1  0
 36209  1  0
 36210  1  0
 40211  1  6
 41212  1  1
 42213  1  0
 42214  1  0
 42215  1  0
 43216  1  0
 44217  1  0
 47218  1  6
 48219  1  0
 48220  1  0
 50221  1  0
 51222  1  0
 54223  1  0
 55224  1  0
 56225  1  0
 59226  1  1
 60227  1  0
 60228  1  0
 62229  1  0
 63230  1  0
 64231  1  0
 65232  1  0
 66233  1  0
 67234  1  0
 71235  1  0
 73236  1  0
 75237  1  0
 78238  1  0
 79239  1  0
 79240  1  0
 80241  1  6
 83242  1  0
 84243  1  6
 85244  1  0
 85245  1  0
 86246  1  0
 86247  1  0
 87248  1  0
 87249  1  0
 88250  1  0
 88251  1  0
 89252  1  0
 89253  1  0
 92254  1  0
 93255  1  0
 96256  1  6
 97257  1  0
 97258  1  0
 98259  1  0
 98260  1  0
 99261  1  0
 99262  1  0
100263  1  0
102264  1  0
103265  1  0
103266  1  0
104267  1  0
107268  1  1
108269  1  0
108270  1  0
109271  1  0
109272  1  0
110273  1  0
110274  1  0
111275  1  0
113276  1  0
114277  1  0
114278  1  0
115279  1  0
118280  1  1
119281  1  0
119282  1  0
120283  1  0
120284  1  0
121285  1  0
121286  1  0
122287  1  0
124288  1  0
125289  1  0
125290  1  0
126291  1  0
129292  1  1
130293  1  0
130294  1  0
131295  1  0
131296  1  0
132297  1  0
132298  1  0
133299  1  0
135300  1  0
136301  1  0
136302  1  0
137303  1  0
140304  1  1
141305  1  0
141306  1  0
143307  1  0
144308  1  0
146309  1  0
147310  1  0
148311  1  0
149312  1  0
151313  1  0
152314  1  0
155315  1  1
156316  1  0
156317  1  0
158318  1  0
159319  1  0
160320  1  0
161321  1  0
162322  1  0
163323  1  0
166324  1  6
167325  1  0
167326  1  0
168327  1  0
171328  1  0
M  END
$$$$
