
     RDKit          3D

321330  0  0  0  0  0  0  0  0999 V2000
    7.5088   -5.2221   -0.1495 C   0  0  0  0  0  0  0  0  0  0  0  0
    7.3471   -3.8428   -0.7837 C   0  0  2  0  0  0  0  0  0  0  0  0
    8.6439   -3.3377   -1.2155 N   0  0  0  0  0  0  0  0  0  0  0  0
    9.2392   -3.7829   -2.3733 C   0  0  0  0  0  0  0  0  0  0  0  0
    8.6511   -4.5095   -3.1787 O   0  0  0  0  0  0  0  0  0  0  0  0
   10.7314   -3.4422   -2.5144 C   0  0  2  0  0  0  0  0  0  0  0  0
   11.5562   -4.2908   -1.5316 C   0  0  0  0  0  0  0  0  0  0  0  0
   11.5477   -5.7909   -1.8583 C   0  0  0  0  0  0  0  0  0  0  0  0
   12.2128   -6.6310   -0.7670 C   0  0  0  0  0  0  0  0  0  0  0  0
   13.6093   -6.2708   -0.6260 N   0  0  0  0  0  0  0  0  0  0  0  0
   14.0757   -5.5137    0.3898 C   0  0  0  0  0  0  0  0  0  0  0  0
   13.3590   -4.9678    1.3048 N   0  0  0  0  0  0  0  0  0  0  0  0
   15.4134   -5.3634    0.3142 N   0  0  0  0  0  0  0  0  0  0  0  0
   10.9642   -2.0222   -2.2443 N   0  0  0  0  0  0  0  0  0  0  0  0
   12.0732   -1.3803   -2.7566 C   0  0  0  0  0  0  0  0  0  0  0  0
   12.8333   -1.9347   -3.5483 O   0  0  0  0  0  0  0  0  0  0  0  0
   12.1945    0.1103   -2.3749 C   0  0  2  0  0  0  0  0  0  0  0  0
   13.6533    0.6128   -2.4713 C   0  0  0  0  0  0  0  0  0  0  0  0
   14.6508   -0.0181   -1.5187 C   0  0  0  0  0  0  0  0  0  0  0  0
   14.8979    0.5403   -0.2638 C   0  0  0  0  0  0  0  0  0  0  0  0
   15.8653   -0.0154    0.5834 C   0  0  0  0  0  0  0  0  0  0  0  0
   16.6140   -1.1356    0.1870 C   0  0  0  0  0  0  0  0  0  0  0  0
   17.6134   -1.6867    1.0075 C   0  0  0  0  0  0  0  0  0  0  0  0
   18.3663   -2.7815    0.5801 C   0  0  0  0  0  0  0  0  0  0  0  0
   18.1330   -3.3418   -0.6715 C   0  0  0  0  0  0  0  0  0  0  0  0
   17.1412   -2.8075   -1.4969 C   0  0  0  0  0  0  0  0  0  0  0  0
   16.3745   -1.7053   -1.0815 C   0  0  0  0  0  0  0  0  0  0  0  0
   15.3906   -1.1433   -1.9109 C   0  0  0  0  0  0  0  0  0  0  0  0
   11.5487    0.4213   -1.0915 N   0  0  0  0  0  0  0  0  0  0  0  0
   11.1845    1.7253   -0.8065 C   0  0  0  0  0  0  0  0  0  0  0  0
   11.2989    2.6087   -1.6584 O   0  0  0  0  0  0  0  0  0  0  0  0
   10.5851    1.9962    0.6057 C   0  0  1  0  0  0  0  0  0  0  0  0
   11.3633    1.2869    1.7280 C   0  0  0  0  0  0  0  0  0  0  0  0
   11.3538    2.0981    3.0220 C   0  0  0  0  0  0  0  0  0  0  0  0
   11.9821    3.4794    2.8217 C   0  0  0  0  0  0  0  0  0  0  0  0
   11.7842    4.0183    1.4039 C   0  0  0  0  0  0  0  0  0  0  0  0
   10.5678    3.4613    0.8197 N   0  0  0  0  0  0  0  0  0  0  0  0
    9.4529    4.1765    0.4064 C   0  0  0  0  0  0  0  0  0  0  0  0
    8.4221    3.6011    0.0347 O   0  0  0  0  0  0  0  0  0  0  0  0
    9.5336    5.7140    0.3280 C   0  0  1  0  0  0  0  0  0  0  0  0
   10.1897    6.1103   -0.9933 C   0  0  0  0  0  0  0  0  0  0  0  0
   11.2892    7.0925   -0.7510 C   0  0  0  0  0  0  0  0  0  0  0  0
   12.4523    6.8214   -0.4932 O   0  0  0  0  0  0  0  0  0  0  0  0
   10.8770    8.3727   -0.8238 O   0  0  0  0  0  0  0  0  0  0  0  0
    8.1806    6.2765    0.4028 N   0  0  0  0  0  0  0  0  0  0  0  0
    7.7634    7.0499    1.4624 C   0  0  0  0  0  0  0  0  0  0  0  0
    8.4647    7.3012    2.4394 O   0  0  0  0  0  0  0  0  0  0  0  0
    6.3348    7.5838    1.3240 C   0  0  0  0  0  0  0  0  0  0  0  0
    5.3939    6.8991    2.2098 N   0  0  0  0  0  0  0  0  0  0  0  0
    5.4471    7.2581    3.6203 C   0  0  0  0  0  0  0  0  0  0  0  0
    4.7435    5.7755    1.6996 C   0  0  0  0  0  0  0  0  0  0  0  0
    4.9815    5.3710    0.5586 O   0  0  0  0  0  0  0  0  0  0  0  0
    3.7485    5.0409    2.6324 C   0  0  2  0  0  0  0  0  0  0  0  0
    4.4716    4.1141    3.6154 C   0  0  0  0  0  0  0  0  0  0  0  0
    4.3775    2.7464    2.9542 C   0  0  0  0  0  0  0  0  0  0  0  0
    3.0097    2.7723    2.3013 C   0  0  0  0  0  0  0  0  0  0  0  0
    2.8228    4.1603    1.9037 N   0  0  0  0  0  0  0  0  0  0  0  0
    1.7390    4.7419    1.2650 C   0  0  0  0  0  0  0  0  0  0  0  0
    1.5842    5.9618    1.2218 O   0  0  0  0  0  0  0  0  0  0  0  0
    0.6692    3.9068    0.6594 C   0  0  0  0  0  0  0  0  0  0  0  0
   -0.6429    4.3764    0.7713 C   0  0  0  0  0  0  0  0  0  0  0  0
   -1.6978    3.6862    0.1645 C   0  0  0  0  0  0  0  0  0  0  0  0
   -1.4428    2.4984   -0.5267 C   0  0  0  0  0  0  0  0  0  0  0  0
   -0.1300    2.0197   -0.6409 C   0  0  0  0  0  0  0  0  0  0  0  0
    0.9308    2.7561   -0.0889 C   0  0  0  0  0  0  0  0  0  0  0  0
    0.1050    0.7495   -1.3851 C   0  0  0  0  0  0  0  0  0  0  0  0
   -0.7755    0.2850   -2.1080 O   0  0  0  0  0  0  0  0  0  0  0  0
    1.3254    0.1306   -1.2097 N   0  0  0  0  0  0  0  0  0  0  0  0
    1.6186   -1.1579   -1.8216 C   0  0  0  0  0  0  0  0  0  0  0  0
    1.6499   -2.2736   -0.7706 C   0  0  2  0  0  0  0  0  0  0  0  0
    2.9665   -2.4511   -0.1664 N   0  0  0  0  0  0  0  0  0  0  0  0
    3.4819   -1.6655    0.8335 C   0  0  0  0  0  0  0  0  0  0  0  0
    2.9116   -0.6511    1.2310 O   0  0  0  0  0  0  0  0  0  0  0  0
    4.6983   -2.2938    1.5539 C   0  0  1  0  0  0  0  0  0  0  0  0
    4.1850   -3.1198    2.7306 C   0  0  0  0  0  0  0  0  0  0  0  0
    5.4683   -3.1647    0.6571 N   0  0  0  0  0  0  0  0  0  0  0  0
    6.7313   -2.8354    0.2115 C   0  0  0  0  0  0  0  0  0  0  0  0
    7.3262   -1.8216    0.5754 O   0  0  0  0  0  0  0  0  0  0  0  0
    1.3221   -3.6178   -1.4219 C   0  0  0  0  0  0  0  0  0  0  0  0
    2.1874   -4.2833   -1.9919 O   0  0  0  0  0  0  0  0  0  0  0  0
    0.0120   -4.0055   -1.2927 N   0  0  0  0  0  0  0  0  0  0  0  0
   -0.4973   -5.2332   -1.9094 C   0  0  1  0  0  0  0  0  0  0  0  0
   -0.5483   -6.4232   -0.9278 C   0  0  0  0  0  0  0  0  0  0  0  0
    0.7851   -7.0280   -0.5520 C   0  0  0  0  0  0  0  0  0  0  0  0
    1.6432   -7.5435   -1.5310 C   0  0  0  0  0  0  0  0  0  0  0  0
    2.8505   -8.1455   -1.1759 C   0  0  0  0  0  0  0  0  0  0  0  0
    3.2088   -8.2535    0.1667 C   0  0  0  0  0  0  0  0  0  0  0  0
    2.3601   -7.7571    1.1524 C   0  0  0  0  0  0  0  0  0  0  0  0
    1.1552   -7.1477    0.7966 C   0  0  0  0  0  0  0  0  0  0  0  0
   -1.9038   -4.8842   -2.4342 C   0  0  0  0  0  0  0  0  0  0  0  0
   -2.1253   -4.6639   -3.6216 O   0  0  0  0  0  0  0  0  0  0  0  0
   -2.8631   -4.7302   -1.4657 N   0  0  0  0  0  0  0  0  0  0  0  0
   -4.2189   -4.2448   -1.7302 C   0  0  1  0  0  0  0  0  0  0  0  0
   -5.0499   -5.1733   -2.6418 C   0  0  0  0  0  0  0  0  0  0  0  0
   -5.5236   -6.4703   -2.0215 C   0  0  0  0  0  0  0  0  0  0  0  0
   -4.6319   -7.4993   -1.7107 C   0  0  0  0  0  0  0  0  0  0  0  0
   -5.0878   -8.6921   -1.1382 C   0  0  0  0  0  0  0  0  0  0  0  0
   -6.4506   -8.8877   -0.8756 C   0  0  0  0  0  0  0  0  0  0  0  0
   -6.9319  -10.0815   -0.3093 C   0  0  0  0  0  0  0  0  0  0  0  0
   -8.2954  -10.2613   -0.0700 C   0  0  0  0  0  0  0  0  0  0  0  0
   -9.1979   -9.2506   -0.3898 C   0  0  0  0  0  0  0  0  0  0  0  0
   -8.7353   -8.0627   -0.9540 C   0  0  0  0  0  0  0  0  0  0  0  0
   -7.3662   -7.8649   -1.2015 C   0  0  0  0  0  0  0  0  0  0  0  0
   -6.8901   -6.6740   -1.7738 C   0  0  0  0  0  0  0  0  0  0  0  0
   -4.8644   -4.0506   -0.3375 C   0  0  0  0  0  0  0  0  0  0  0  0
   -4.2611   -4.3551    0.6956 O   0  0  0  0  0  0  0  0  0  0  0  0
   -6.1331   -3.5220   -0.3197 N   0  0  0  0  0  0  0  0  0  0  0  0
   -6.9875   -3.7494    0.8438 C   0  0  1  0  0  0  0  0  0  0  0  0
   -6.8156   -2.6783    1.9321 C   0  0  0  0  0  0  0  0  0  0  0  0
   -7.7613   -2.8002    3.1418 C   0  0  0  0  0  0  0  0  0  0  0  0
   -7.6367   -4.1061    3.9413 C   0  0  0  0  0  0  0  0  0  0  0  0
   -8.2273   -5.2131    3.2156 N   0  0  0  0  0  0  0  0  0  0  0  0
   -9.5397   -5.5225    3.2607 C   0  0  0  0  0  0  0  0  0  0  0  0
  -10.4231   -4.9296    3.9739 N   0  0  0  0  0  0  0  0  0  0  0  0
   -9.8869   -6.4840    2.3742 N   0  0  0  0  0  0  0  0  0  0  0  0
   -8.4275   -3.8890    0.3188 C   0  0  0  0  0  0  0  0  0  0  0  0
   -8.9510   -4.9889    0.1480 O   0  0  0  0  0  0  0  0  0  0  0  0
   -9.0444   -2.7182   -0.0507 N   0  0  0  0  0  0  0  0  0  0  0  0
  -10.4398   -2.7254   -0.5041 C   0  0  1  0  0  0  0  0  0  0  0  0
  -11.3813   -2.9969    0.6829 C   0  0  0  0  0  0  0  0  0  0  0  0
  -12.8763   -3.0377    0.3521 C   0  0  0  0  0  0  0  0  0  0  0  0
  -13.2754   -4.1786   -0.5845 C   0  0  0  0  0  0  0  0  0  0  0  0
  -12.9489   -3.8578   -1.9602 N   0  0  0  0  0  0  0  0  0  0  0  0
  -13.2133   -4.6735   -2.9992 C   0  0  0  0  0  0  0  0  0  0  0  0
  -13.4801   -5.9265   -2.9773 N   0  0  0  0  0  0  0  0  0  0  0  0
  -13.1555   -4.0179   -4.1736 N   0  0  0  0  0  0  0  0  0  0  0  0
  -10.7490   -1.3599   -1.1397 C   0  0  0  0  0  0  0  0  0  0  0  0
  -11.2947   -1.2395   -2.2371 O   0  0  0  0  0  0  0  0  0  0  0  0
  -10.4596   -0.2887   -0.3214 N   0  0  0  0  0  0  0  0  0  0  0  0
  -10.3727    1.0716   -0.8285 C   0  0  1  0  0  0  0  0  0  0  0  0
  -11.2552    2.0377   -0.0285 C   0  0  0  0  0  0  0  0  0  0  0  0
  -11.3488    1.8142    1.4875 C   0  0  0  0  0  0  0  0  0  0  0  0
  -10.0588    2.0704    2.2650 C   0  0  0  0  0  0  0  0  0  0  0  0
  -10.3290    1.8852    3.6857 N   0  0  0  0  0  0  0  0  0  0  0  0
   -9.3223    1.8828    4.5902 C   0  0  0  0  0  0  0  0  0  0  0  0
   -8.0765    1.8019    4.3147 N   0  0  0  0  0  0  0  0  0  0  0  0
   -9.8072    1.9490    5.8495 N   0  0  0  0  0  0  0  0  0  0  0  0
   -8.8710    1.4456   -0.8644 C   0  0  0  0  0  0  0  0  0  0  0  0
   -8.0199    0.7383   -0.3325 O   0  0  0  0  0  0  0  0  0  0  0  0
   -8.5931    2.6042   -1.5509 N   0  0  0  0  0  0  0  0  0  0  0  0
   -7.2918    3.2615   -1.4804 C   0  0  1  0  0  0  0  0  0  0  0  0
   -6.8847    3.8169   -2.8538 C   0  0  0  0  0  0  0  0  0  0  0  0
   -7.5984    5.0780   -3.3671 C   0  0  0  0  0  0  0  0  0  0  0  0
   -9.0875    4.9232   -3.6887 C   0  0  0  0  0  0  0  0  0  0  0  0
   -9.8991    4.9124   -2.4722 N   0  0  0  0  0  0  0  0  0  0  0  0
  -10.0870    6.0528   -1.7598 C   0  0  0  0  0  0  0  0  0  0  0  0
   -9.7423    7.2295   -2.1219 N   0  0  0  0  0  0  0  0  0  0  0  0
  -10.6712    5.7993   -0.5741 N   0  0  0  0  0  0  0  0  0  0  0  0
   -7.3417    4.3145   -0.3440 C   0  0  0  0  0  0  0  0  0  0  0  0
   -8.3284    4.4767    0.3754 O   0  0  0  0  0  0  0  0  0  0  0  0
   -6.1895    5.0448   -0.1746 N   0  0  0  0  0  0  0  0  0  0  0  0
   -5.8951    5.6566    1.1219 C   0  0  2  0  0  0  0  0  0  0  0  0
   -6.6793    6.9474    1.4447 C   0  0  0  0  0  0  0  0  0  0  0  0
   -6.6954    7.4059    2.5895 O   0  0  0  0  0  0  0  0  0  0  0  0
   -7.1511    7.6742    0.3678 N   0  0  0  0  0  0  0  0  0  0  0  0
   -7.7158    9.0047    0.5950 C   0  0  1  0  0  0  0  0  0  0  0  0
   -7.7336    9.8704   -0.6729 C   0  0  0  0  0  0  0  0  0  0  0  0
   -6.3649   10.4026   -1.1073 C   0  0  0  0  0  0  0  0  0  0  0  0
   -5.4088    9.3923   -1.7476 C   0  0  0  0  0  0  0  0  0  0  0  0
   -5.9759    8.7400   -3.0097 C   0  0  0  0  0  0  0  0  0  0  0  0
   -4.9806    7.8907   -3.6543 N   0  0  0  0  0  0  0  0  0  0  0  0
   -9.1435    8.8972    1.1408 C   0  0  0  0  0  0  0  0  0  0  0  0
   -9.9801    8.0503    0.8470 O   0  0  0  0  0  0  0  0  0  0  0  0
   -9.4598    9.8973    1.9845 O   0  0  0  0  0  0  0  0  0  0  0  0
   -4.4101    6.0639    1.2224 C   0  0  0  0  0  0  0  0  0  0  0  0
   -3.4464    4.9646    1.2717 N   0  0  0  0  0  0  0  0  0  0  0  0
   -3.0570    4.2843    0.1380 C   0  0  0  0  0  0  0  0  0  0  0  0
   -3.7491    4.2041   -0.8722 O   0  0  0  0  0  0  0  0  0  0  0  0
    7.9728   -5.9259   -0.8482 H   0  0  0  0  0  0  0  0  0  0  0  0
    6.5465   -5.6434    0.1541 H   0  0  0  0  0  0  0  0  0  0  0  0
    8.1453   -5.1709    0.7413 H   0  0  0  0  0  0  0  0  0  0  0  0
    6.6891   -3.9061   -1.6572 H   0  0  0  0  0  0  0  0  0  0  0  0
    9.2018   -2.8620   -0.5135 H   0  0  0  0  0  0  0  0  0  0  0  0
   11.0296   -3.6518   -3.5477 H   0  0  0  0  0  0  0  0  0  0  0  0
   12.5943   -3.9342   -1.5431 H   0  0  0  0  0  0  0  0  0  0  0  0
   11.1897   -4.1335   -0.5101 H   0  0  0  0  0  0  0  0  0  0  0  0
   12.0520   -5.9562   -2.8160 H   0  0  0  0  0  0  0  0  0  0  0  0
   10.5167   -6.1429   -1.9712 H   0  0  0  0  0  0  0  0  0  0  0  0
   11.6702   -6.5332    0.1799 H   0  0  0  0  0  0  0  0  0  0  0  0
   12.1480   -7.6875   -1.0476 H   0  0  0  0  0  0  0  0  0  0  0  0
   14.2554   -6.9808   -0.9537 H   0  0  0  0  0  0  0  0  0  0  0  0
   13.9712   -4.4653    1.9483 H   0  0  0  0  0  0  0  0  0  0  0  0
   15.7289   -5.2812   -0.6456 H   0  0  0  0  0  0  0  0  0  0  0  0
   15.7777   -4.5844    0.8477 H   0  0  0  0  0  0  0  0  0  0  0  0
   10.2401   -1.4565   -1.8102 H   0  0  0  0  0  0  0  0  0  0  0  0
   11.6230    0.6433   -3.1461 H   0  0  0  0  0  0  0  0  0  0  0  0
   14.0193    0.4653   -3.4987 H   0  0  0  0  0  0  0  0  0  0  0  0
   13.6828    1.7013   -2.3190 H   0  0  0  0  0  0  0  0  0  0  0  0
   14.3724    1.4383    0.0507 H   0  0  0  0  0  0  0  0  0  0  0  0
   16.0526    0.4554    1.5440 H   0  0  0  0  0  0  0  0  0  0  0  0
   17.8235   -1.2519    1.9828 H   0  0  0  0  0  0  0  0  0  0  0  0
   19.1465   -3.1882    1.2207 H   0  0  0  0  0  0  0  0  0  0  0  0
   18.7277   -4.1852   -1.0117 H   0  0  0  0  0  0  0  0  0  0  0  0
   16.9784   -3.2443   -2.4808 H   0  0  0  0  0  0  0  0  0  0  0  0
   15.2236   -1.5741   -2.8993 H   0  0  0  0  0  0  0  0  0  0  0  0
   11.7064   -0.2308   -0.3322 H   0  0  0  0  0  0  0  0  0  0  0  0
    9.5551    1.6205    0.5870 H   0  0  0  0  0  0  0  0  0  0  0  0
   10.9236    0.2986    1.9084 H   0  0  0  0  0  0  0  0  0  0  0  0
   12.4040    1.1137    1.4356 H   0  0  0  0  0  0  0  0  0  0  0  0
   11.8796    1.5610    3.8196 H   0  0  0  0  0  0  0  0  0  0  0  0
   10.3166    2.2219    3.3586 H   0  0  0  0  0  0  0  0  0  0  0  0
   13.0559    3.4387    3.0373 H   0  0  0  0  0  0  0  0  0  0  0  0
   11.5460    4.1705    3.5499 H   0  0  0  0  0  0  0  0  0  0  0  0
   11.7899    5.1063    1.4338 H   0  0  0  0  0  0  0  0  0  0  0  0
   12.6253    3.7200    0.7661 H   0  0  0  0  0  0  0  0  0  0  0  0
   10.0849    6.0911    1.1913 H   0  0  0  0  0  0  0  0  0  0  0  0
   10.6374    5.2579   -1.5152 H   0  0  0  0  0  0  0  0  0  0  0  0
    9.4768    6.5466   -1.7026 H   0  0  0  0  0  0  0  0  0  0  0  0
   11.6828    8.9066   -0.6586 H   0  0  0  0  0  0  0  0  0  0  0  0
    7.4531    5.7663   -0.1025 H   0  0  0  0  0  0  0  0  0  0  0  0
    6.3441    8.6518    1.5709 H   0  0  0  0  0  0  0  0  0  0  0  0
    6.0043    7.5085    0.2812 H   0  0  0  0  0  0  0  0  0  0  0  0
    5.6820    8.3205    3.7322 H   0  0  0  0  0  0  0  0  0  0  0  0
    4.4954    7.0638    4.1210 H   0  0  0  0  0  0  0  0  0  0  0  0
    6.2269    6.6634    4.1043 H   0  0  0  0  0  0  0  0  0  0  0  0
    3.1495    5.7891    3.1616 H   0  0  0  0  0  0  0  0  0  0  0  0
    5.5097    4.3902    3.8171 H   0  0  0  0  0  0  0  0  0  0  0  0
    3.9324    4.0961    4.5707 H   0  0  0  0  0  0  0  0  0  0  0  0
    5.1579    2.6570    2.1897 H   0  0  0  0  0  0  0  0  0  0  0  0
    4.4894    1.9175    3.6558 H   0  0  0  0  0  0  0  0  0  0  0  0
    2.9702    2.0927    1.4517 H   0  0  0  0  0  0  0  0  0  0  0  0
    2.2144    2.5117    3.0100 H   0  0  0  0  0  0  0  0  0  0  0  0
   -0.8169    5.3283    1.2699 H   0  0  0  0  0  0  0  0  0  0  0  0
   -2.2624    1.9670   -1.0113 H   0  0  0  0  0  0  0  0  0  0  0  0
    1.9548    2.4885   -0.3096 H   0  0  0  0  0  0  0  0  0  0  0  0
    1.9424    0.4044   -0.4497 H   0  0  0  0  0  0  0  0  0  0  0  0
    2.5958   -1.0596   -2.3091 H   0  0  0  0  0  0  0  0  0  0  0  0
    0.8824   -1.3745   -2.6041 H   0  0  0  0  0  0  0  0  0  0  0  0
    0.9370   -2.0725    0.0376 H   0  0  0  0  0  0  0  0  0  0  0  0
    3.5458   -3.1767   -0.5768 H   0  0  0  0  0  0  0  0  0  0  0  0
    5.3331   -1.4771    1.9094 H   0  0  0  0  0  0  0  0  0  0  0  0
    5.0088   -3.6093    3.2596 H   0  0  0  0  0  0  0  0  0  0  0  0
    3.4940   -3.9004    2.3948 H   0  0  0  0  0  0  0  0  0  0  0  0
    3.6429   -2.4889    3.4429 H   0  0  0  0  0  0  0  0  0  0  0  0
    5.0624   -4.0495    0.3791 H   0  0  0  0  0  0  0  0  0  0  0  0
   -0.6673   -3.3168   -0.9891 H   0  0  0  0  0  0  0  0  0  0  0  0
    0.1170   -5.4816   -2.7820 H   0  0  0  0  0  0  0  0  0  0  0  0
   -1.0569   -6.1165   -0.0071 H   0  0  0  0  0  0  0  0  0  0  0  0
   -1.1591   -7.2267   -1.3586 H   0  0  0  0  0  0  0  0  0  0  0  0
    1.3829   -7.4813   -2.5858 H   0  0  0  0  0  0  0  0  0  0  0  0
    3.5071   -8.5358   -1.9478 H   0  0  0  0  0  0  0  0  0  0  0  0
    4.1397   -8.7407    0.4416 H   0  0  0  0  0  0  0  0  0  0  0  0
    2.6305   -7.8546    2.2011 H   0  0  0  0  0  0  0  0  0  0  0  0
    0.5013   -6.7800    1.5834 H   0  0  0  0  0  0  0  0  0  0  0  0
   -2.6387   -4.8462   -0.4796 H   0  0  0  0  0  0  0  0  0  0  0  0
   -4.1126   -3.2627   -2.2022 H   0  0  0  0  0  0  0  0  0  0  0  0
   -4.5014   -5.4200   -3.5566 H   0  0  0  0  0  0  0  0  0  0  0  0
   -5.9282   -4.6112   -2.9840 H   0  0  0  0  0  0  0  0  0  0  0  0
   -3.5726   -7.3958   -1.9249 H   0  0  0  0  0  0  0  0  0  0  0  0
   -4.3679   -9.4742   -0.9114 H   0  0  0  0  0  0  0  0  0  0  0  0
   -6.2435  -10.8874   -0.0625 H   0  0  0  0  0  0  0  0  0  0  0  0
   -8.6552  -11.1941    0.3558 H   0  0  0  0  0  0  0  0  0  0  0  0
  -10.2602   -9.3892   -0.2133 H   0  0  0  0  0  0  0  0  0  0  0  0
   -9.4551   -7.2849   -1.2050 H   0  0  0  0  0  0  0  0  0  0  0  0
   -7.6061   -5.8965   -2.0334 H   0  0  0  0  0  0  0  0  0  0  0  0
   -6.5922   -3.3420   -1.2065 H   0  0  0  0  0  0  0  0  0  0  0  0
   -6.7004   -4.7211    1.2549 H   0  0  0  0  0  0  0  0  0  0  0  0
   -5.7776   -2.6967    2.2903 H   0  0  0  0  0  0  0  0  0  0  0  0
   -6.9527   -1.6808    1.4932 H   0  0  0  0  0  0  0  0  0  0  0  0
   -8.7987   -2.6483    2.8221 H   0  0  0  0  0  0  0  0  0  0  0  0
   -7.5271   -1.9716    3.8209 H   0  0  0  0  0  0  0  0  0  0  0  0
   -8.1179   -3.9921    4.9185 H   0  0  0  0  0  0  0  0  0  0  0  0
   -6.5800   -4.3209    4.1331 H   0  0  0  0  0  0  0  0  0  0  0  0
   -7.5835   -5.9539    2.9685 H   0  0  0  0  0  0  0  0  0  0  0  0
  -11.3095   -5.3938    3.7499 H   0  0  0  0  0  0  0  0  0  0  0  0
   -9.2700   -7.2863    2.4438 H   0  0  0  0  0  0  0  0  0  0  0  0
   -9.6496   -6.1383    1.4368 H   0  0  0  0  0  0  0  0  0  0  0  0
   -8.5094   -1.8527   -0.0745 H   0  0  0  0  0  0  0  0  0  0  0  0
  -10.5146   -3.4994   -1.2730 H   0  0  0  0  0  0  0  0  0  0  0  0
  -11.1087   -3.9468    1.1565 H   0  0  0  0  0  0  0  0  0  0  0  0
  -11.2269   -2.2291    1.4559 H   0  0  0  0  0  0  0  0  0  0  0  0
  -13.4103   -3.1750    1.3020 H   0  0  0  0  0  0  0  0  0  0  0  0
  -13.2033   -2.0704   -0.0437 H   0  0  0  0  0  0  0  0  0  0  0  0
  -14.3542   -4.3453   -0.5019 H   0  0  0  0  0  0  0  0  0  0  0  0
  -12.7725   -5.1000   -0.2758 H   0  0  0  0  0  0  0  0  0  0  0  0
  -13.0956   -2.8789   -2.1981 H   0  0  0  0  0  0  0  0  0  0  0  0
  -13.4667   -6.2548   -2.0106 H   0  0  0  0  0  0  0  0  0  0  0  0
  -12.3299   -3.4402   -4.2642 H   0  0  0  0  0  0  0  0  0  0  0  0
  -13.2310   -4.6739   -4.9416 H   0  0  0  0  0  0  0  0  0  0  0  0
   -9.9162   -0.4799    0.5128 H   0  0  0  0  0  0  0  0  0  0  0  0
  -10.7063    1.0864   -1.8726 H   0  0  0  0  0  0  0  0  0  0  0  0
  -10.9659    3.0729   -0.2186 H   0  0  0  0  0  0  0  0  0  0  0  0
  -12.2764    1.9420   -0.4192 H   0  0  0  0  0  0  0  0  0  0  0  0
  -12.1246    2.4886    1.8736 H   0  0  0  0  0  0  0  0  0  0  0  0
  -11.7140    0.8022    1.6974 H   0  0  0  0  0  0  0  0  0  0  0  0
   -9.2762    1.3769    1.9400 H   0  0  0  0  0  0  0  0  0  0  0  0
   -9.7115    3.0945    2.0861 H   0  0  0  0  0  0  0  0  0  0  0  0
  -11.1181    2.4386    4.0042 H   0  0  0  0  0  0  0  0  0  0  0  0
   -7.5304    1.8459    5.1762 H   0  0  0  0  0  0  0  0  0  0  0  0
  -10.6673    1.4226    5.9574 H   0  0  0  0  0  0  0  0  0  0  0  0
   -9.1425    1.6848    6.5652 H   0  0  0  0  0  0  0  0  0  0  0  0
   -9.3540    3.2637   -1.6967 H   0  0  0  0  0  0  0  0  0  0  0  0
   -6.5500    2.5101   -1.1805 H   0  0  0  0  0  0  0  0  0  0  0  0
   -7.0005    3.0266   -3.6059 H   0  0  0  0  0  0  0  0  0  0  0  0
   -5.8148    4.0495   -2.8234 H   0  0  0  0  0  0  0  0  0  0  0  0
   -7.0926    5.3702   -4.2972 H   0  0  0  0  0  0  0  0  0  0  0  0
   -7.4288    5.8997   -2.6616 H   0  0  0  0  0  0  0  0  0  0  0  0
   -9.4144    5.7352   -4.3468 H   0  0  0  0  0  0  0  0  0  0  0  0
   -9.2484    3.9876   -4.2357 H   0  0  0  0  0  0  0  0  0  0  0  0
  -10.8167    4.5078   -2.6535 H   0  0  0  0  0  0  0  0  0  0  0  0
  -10.0477    7.8785   -1.3893 H   0  0  0  0  0  0  0  0  0  0  0  0
  -10.1206    5.1031   -0.0681 H   0  0  0  0  0  0  0  0  0  0  0  0
  -10.6687    6.6175    0.0409 H   0  0  0  0  0  0  0  0  0  0  0  0
   -5.3672    4.6613   -0.6497 H   0  0  0  0  0  0  0  0  0  0  0  0
   -6.1438    4.9194    1.8955 H   0  0  0  0  0  0  0  0  0  0  0  0
   -7.4829    7.1292   -0.4270 H   0  0  0  0  0  0  0  0  0  0  0  0
   -7.1056    9.4946    1.3649 H   0  0  0  0  0  0  0  0  0  0  0  0
   -8.2246    9.3462   -1.4994 H   0  0  0  0  0  0  0  0  0  0  0  0
   -8.3649   10.7493   -0.4709 H   0  0  0  0  0  0  0  0  0  0  0  0
   -6.5306   11.2207   -1.8258 H   0  0  0  0  0  0  0  0  0  0  0  0
   -5.8634   10.8620   -0.2438 H   0  0  0  0  0  0  0  0  0  0  0  0
   -4.4840    9.9284   -2.0062 H   0  0  0  0  0  0  0  0  0  0  0  0
   -5.1266    8.6246   -1.0195 H   0  0  0  0  0  0  0  0  0  0  0  0
   -6.8452    8.1255   -2.7645 H   0  0  0  0  0  0  0  0  0  0  0  0
   -6.3043    9.5072   -3.7197 H   0  0  0  0  0  0  0  0  0  0  0  0
   -4.1634    8.4468   -3.9044 H   0  0  0  0  0  0  0  0  0  0  0  0
   -4.6491    7.1820   -2.9998 H   0  0  0  0  0  0  0  0  0  0  0  0
  -10.3717    9.6984    2.2842 H   0  0  0  0  0  0  0  0  0  0  0  0
   -4.2296    6.6501    2.1327 H   0  0  0  0  0  0  0  0  0  0  0  0
   -4.1319    6.7015    0.3742 H   0  0  0  0  0  0  0  0  0  0  0  0
   -2.8274    4.9564    2.0732 H   0  0  0  0  0  0  0  0  0  0  0  0
  1  2  1  0
  2  3  1  0
  3  4  1  0
  4  5  2  0
  4  6  1  0
  6  7  1  0
  7  8  1  0
  8  9  1  0
  9 10  1  0
 10 11  1  0
 11 12  2  3
 11 13  1  0
  6 14  1  0
 14 15  1  0
 15 16  2  0
 15 17  1  0
 17 18  1  0
 18 19  1  0
 19 20  1  0
 20 21  2  0
 21 22  1  0
 22 23  2  0
 23 24  1  0
 24 25  2  0
 25 26  1  0
 26 27  2  0
 27 28  1  0
 17 29  1  0
 29 30  1  0
 30 31  2  0
 30 32  1  0
 32 33  1  0
 33 34  1  0
 34 35  1  0
 35 36  1  0
 36 37  1  0
 37 38  1  0
 38 39  2  0
 38 40  1  0
 40 41  1  0
 41 42  1  0
 42 43  2  0
 42 44  1  0
 40 45  1  0
 45 46  1  0
 46 47  2  0
 46 48  1  0
 48 49  1  0
 49 50  1  0
 49 51  1  0
 51 52  2  0
 51 53  1  0
 53 54  1  0
 54 55  1  0
 55 56  1  0
 56 57  1  0
 57 58  1  0
 58 59  2  0
 58 60  1  0
 60 61  1  0
 61 62  2  0
 62 63  1  0
 63 64  2  0
 64 65  1  0
 64 66  1  0
 66 67  2  0
 66 68  1  0
 68 69  1  0
 69 70  1  0
 70 71  1  0
 71 72  1  0
 72 73  2  0
 72 74  1  0
 74 75  1  0
 74 76  1  0
 76 77  1  0
 77 78  2  0
 70 79  1  0
 79 80  2  0
 79 81  1  0
 81 82  1  0
 82 83  1  0
 83 84  1  0
 84 85  2  0
 85 86  1  0
 86 87  2  0
 87 88  1  0
 88 89  2  0
 82 90  1  0
 90 91  2  0
 90 92  1  0
 92 93  1  0
 93 94  1  0
 94 95  1  0
 95 96  1  0
 96 97  2  0
 97 98  1  0
 98 99  2  0
 99100  1  0
100101  2  0
101102  1  0
102103  2  0
103104  1  0
 93105  1  0
105106  2  0
105107  1  0
107108  1  0
108109  1  0
109110  1  0
110111  1  0
111112  1  0
112113  1  0
113114  2  3
113115  1  0
108116  1  0
116117  2  0
116118  1  0
118119  1  0
119120  1  0
120121  1  0
121122  1  0
122123  1  0
123124  1  0
124125  2  3
124126  1  0
119127  1  0
127128  2  0
127129  1  0
129130  1  0
130131  1  0
131132  1  0
132133  1  0
133134  1  0
134135  1  0
135136  2  3
135137  1  0
130138  1  0
138139  2  0
138140  1  0
140141  1  0
141142  1  0
142143  1  0
143144  1  0
144145  1  0
145146  1  0
146147  2  3
146148  1  0
141149  1  0
149150  2  0
149151  1  0
151152  1  0
152153  1  0
153154  2  0
153155  1  0
155156  1  0
156157  1  0
157158  1  0
158159  1  0
159160  1  0
160161  1  0
156162  1  0
162163  2  0
162164  1  0
152165  1  0
165166  1  0
166167  1  0
167168  2  0
 77  2  1  0
 89 84  1  0
104 95  2  0
 28 19  2  0
 37 32  1  0
 57 53  1  0
 65 60  2  0
103 98  1  0
 27 22  1  0
167 62  1  0
  1169  1  0
  1170  1  0
  1171  1  0
  2172  1  6
  3173  1  0
  6174  1  6
  7175  1  0
  7176  1  0
  8177  1  0
  8178  1  0
  9179  1  0
  9180  1  0
 10181  1  0
 12182  1  0
 13183  1  0
 13184  1  0
 14185  1  0
 17186  1  6
 18187  1  0
 18188  1  0
 20189  1  0
 21190  1  0
 23191  1  0
 24192  1  0
 25193  1  0
 26194  1  0
 28195  1  0
 29196  1  0
 32197  1  6
 33198  1  0
 33199  1  0
 34200  1  0
 34201  1  0
 35202  1  0
 35203  1  0
 36204  1  0
 36205  1  0
 40206  1  1
 41207  1  0
 41208  1  0
 44209  1  0
 45210  1  0
 48211  1  0
 48212  1  0
 50213  1  0
 50214  1  0
 50215  1  0
 53216  1  1
 54217  1  0
 54218  1  0
 55219  1  0
 55220  1  0
 56221  1  0
 56222  1  0
 61223  1  0
 63224  1  0
 65225  1  0
 68226  1  0
 69227  1  0
 69228  1  0
 70229  1  1
 71230  1  0
 74231  1  1
 75232  1  0
 75233  1  0
 75234  1  0
 76235  1  0
 81236  1  0
 82237  1  6
 83238  1  0
 83239  1  0
 85240  1  0
 86241  1  0
 87242  1  0
 88243  1  0
 89244  1  0
 92245  1  0
 93246  1  6
 94247  1  0
 94248  1  0
 96249  1  0
 97250  1  0
 99251  1  0
100252  1  0
101253  1  0
102254  1  0
104255  1  0
107256  1  0
108257  1  1
109258  1  0
109259  1  0
110260  1  0
110261  1  0
111262  1  0
111263  1  0
112264  1  0
114265  1  0
115266  1  0
115267  1  0
118268  1  0
119269  1  6
120270  1  0
120271  1  0
121272  1  0
121273  1  0
122274  1  0
122275  1  0
123276  1  0
125277  1  0
126278  1  0
126279  1  0
129280  1  0
130281  1  6
131282  1  0
131283  1  0
132284  1  0
132285  1  0
133286  1  0
133287  1  0
134288  1  0
136289  1  0
137290  1  0
137291  1  0
140292  1  0
141293  1  1
142294  1  0
142295  1  0
143296  1  0
143297  1  0
144298  1  0
144299  1  0
145300  1  0
147301  1  0
148302  1  0
148303  1  0
151304  1  0
152305  1  1
155306  1  0
156307  1  1
157308  1  0
157309  1  0
158310  1  0
158311  1  0
159312  1  0
159313  1  0
160314  1  0
160315  1  0
161316  1  0
161317  1  0
164318  1  0
165319  1  0
165320  1  0
166321  1  0
M  END
$$$$
