
     RDKit          3D

 25 26  0  0  0  0  0  0  0  0999 V2000
    4.2121    1.8595   -0.3631 O   0  0  0  0  0  0  0  0  0  0  0  0
    2.9986    1.9965   -0.4096 C   0  0  0  0  0  0  0  0  0  0  0  0
    2.4892    3.2203   -0.6911 O   0  0  0  0  0  0  0  0  0  0  0  0
    1.9908    0.9626   -0.1904 C   0  0  0  0  0  0  0  0  0  0  0  0
    0.6261    1.2261   -0.2673 N   0  0  0  0  0  0  0  0  0  0  0  0
   -0.0086    0.0971   -0.0219 C   0  0  0  0  0  0  0  0  0  0  0  0
   -1.4644   -0.0834   -0.0003 C   0  0  0  0  0  0  0  0  0  0  0  0
   -2.2935    1.0226   -0.2594 C   0  0  0  0  0  0  0  0  0  0  0  0
   -3.6870    0.9039   -0.2508 C   0  0  0  0  0  0  0  0  0  0  0  0
   -4.2728   -0.3286    0.0184 C   0  0  0  0  0  0  0  0  0  0  0  0
   -3.4597   -1.4249    0.2752 C   0  0  0  0  0  0  0  0  0  0  0  0
   -4.0207   -2.6135    0.5349 F   0  0  0  0  0  0  0  0  0  0  0  0
   -2.0703   -1.3170    0.2690 C   0  0  0  0  0  0  0  0  0  0  0  0
    0.9104   -0.8922    0.2122 N   0  0  0  0  0  0  0  0  0  0  0  0
    2.1847   -0.3763    0.1128 C   0  0  0  0  0  0  0  0  0  0  0  0
    3.3668   -1.1552    0.3031 C   0  0  0  0  0  0  0  0  0  0  0  0
    4.5389   -0.8316    0.2456 O   0  0  0  0  0  0  0  0  0  0  0  0
    3.0390   -2.4374    0.5869 O   0  0  0  0  0  0  0  0  0  0  0  0
    3.2883    3.7707   -0.8043 H   0  0  0  0  0  0  0  0  0  0  0  0
   -1.8471    1.9945   -0.4719 H   0  0  0  0  0  0  0  0  0  0  0  0
   -4.3067    1.7736   -0.4542 H   0  0  0  0  0  0  0  0  0  0  0  0
   -5.3521   -0.4417    0.0298 H   0  0  0  0  0  0  0  0  0  0  0  0
   -1.4968   -2.2125    0.4776 H   0  0  0  0  0  0  0  0  0  0  0  0
    0.7127   -1.8591    0.4268 H   0  0  0  0  0  0  0  0  0  0  0  0
    3.9220   -2.8539    0.6919 H   0  0  0  0  0  0  0  0  0  0  0  0
  1  2  2  0
  2  3  1  0
  2  4  1  0
  4  5  1  0
  5  6  2  0
  6  7  1  0
  7  8  2  0
  8  9  1  0
  9 10  2  0
 10 11  1  0
 11 12  1  0
 11 13  2  0
  6 14  1  0
 14 15  1  0
 15 16  1  0
 16 17  2  0
 16 18  1  0
 15  4  2  0
 13  7  1  0
  3 19  1  0
  8 20  1  0
  9 21  1  0
 10 22  1  0
 13 23  1  0
 14 24  1  0
 18 25  1  0
M  END
$$$$
