
     RDKit          3D

338348  0  0  0  0  0  0  0  0999 V2000
    5.2436   -6.7305    2.3139 C   0  0  0  0  0  0  0  0  0  0  0  0
    5.3729   -5.6893    1.2058 C   0  0  2  0  0  0  0  0  0  0  0  0
    6.7727   -5.3021    1.0677 N   0  0  0  0  0  0  0  0  0  0  0  0
    7.3104   -5.0526   -0.1722 C   0  0  0  0  0  0  0  0  0  0  0  0
    6.6150   -4.9579   -1.1868 O   0  0  0  0  0  0  0  0  0  0  0  0
    8.8487   -4.9654   -0.2643 C   0  0  2  0  0  0  0  0  0  0  0  0
    9.6628   -5.4022    0.9693 C   0  0  0  0  0  0  0  0  0  0  0  0
    9.6734   -6.9126    1.2450 C   0  0  0  0  0  0  0  0  0  0  0  0
   10.1391   -7.8075    0.0923 C   0  0  0  0  0  0  0  0  0  0  0  0
   11.3050   -7.2749   -0.5870 N   0  0  0  0  0  0  0  0  0  0  0  0
   12.5771   -7.3846   -0.1469 C   0  0  0  0  0  0  0  0  0  0  0  0
   13.0089   -7.7144    1.0082 N   0  0  0  0  0  0  0  0  0  0  0  0
   13.4578   -7.0746   -1.1225 N   0  0  0  0  0  0  0  0  0  0  0  0
    9.2751   -3.6893   -0.8328 N   0  0  0  0  0  0  0  0  0  0  0  0
    9.5182   -2.5674   -0.0791 C   0  0  0  0  0  0  0  0  0  0  0  0
    9.2128   -2.5102    1.1124 O   0  0  0  0  0  0  0  0  0  0  0  0
   10.1334   -1.3521   -0.8187 C   0  0  2  0  0  0  0  0  0  0  0  0
   11.1628   -1.7016   -1.9171 C   0  0  0  0  0  0  0  0  0  0  0  0
   12.5808   -2.0680   -1.5263 C   0  0  0  0  0  0  0  0  0  0  0  0
   13.6424   -1.5315   -2.2679 C   0  0  0  0  0  0  0  0  0  0  0  0
   14.9632   -1.8986   -2.0035 C   0  0  0  0  0  0  0  0  0  0  0  0
   15.2583   -2.8250   -0.9958 C   0  0  0  0  0  0  0  0  0  0  0  0
   16.5814   -3.2190   -0.7307 C   0  0  0  0  0  0  0  0  0  0  0  0
   16.8601   -4.1511    0.2695 C   0  0  0  0  0  0  0  0  0  0  0  0
   15.8222   -4.6948    1.0175 C   0  0  0  0  0  0  0  0  0  0  0  0
   14.5028   -4.3084    0.7677 C   0  0  0  0  0  0  0  0  0  0  0  0
   14.2014   -3.3766   -0.2379 C   0  0  0  0  0  0  0  0  0  0  0  0
   12.8753   -2.9899   -0.5133 C   0  0  0  0  0  0  0  0  0  0  0  0
   10.6310   -0.4667    0.2320 N   0  0  0  0  0  0  0  0  0  0  0  0
   11.1995    0.7676   -0.0011 C   0  0  0  0  0  0  0  0  0  0  0  0
   11.5090    1.1725   -1.1179 O   0  0  0  0  0  0  0  0  0  0  0  0
   11.4985    1.5511    1.3041 C   0  0  1  0  0  0  0  0  0  0  0  0
   12.7154    0.9021    1.9835 C   0  0  0  0  0  0  0  0  0  0  0  0
   13.2241    1.7256    3.1614 C   0  0  0  0  0  0  0  0  0  0  0  0
   13.2778    3.2266    2.8706 C   0  0  0  0  0  0  0  0  0  0  0  0
   12.9791    3.5556    1.4105 C   0  0  0  0  0  0  0  0  0  0  0  0
   11.6983    2.9785    1.0133 N   0  0  0  0  0  0  0  0  0  0  0  0
   10.5880    3.6865    0.5530 C   0  0  0  0  0  0  0  0  0  0  0  0
    9.4803    3.1418    0.4825 O   0  0  0  0  0  0  0  0  0  0  0  0
   10.7881    5.1608    0.1087 C   0  0  1  0  0  0  0  0  0  0  0  0
   11.6731    5.2079   -1.1604 C   0  0  2  0  0  0  0  0  0  0  0  0
   12.3755    6.5530   -1.3046 C   0  0  0  0  0  0  0  0  0  0  0  0
   10.8652    5.0082   -2.3333 O   0  0  0  0  0  0  0  0  0  0  0  0
    9.4839    5.7651   -0.1743 N   0  0  0  0  0  0  0  0  0  0  0  0
    8.6061    6.0765    0.8360 C   0  0  0  0  0  0  0  0  0  0  0  0
    8.9276    6.0939    2.0238 O   0  0  0  0  0  0  0  0  0  0  0  0
    7.1752    6.4028    0.3643 C   0  0  2  0  0  0  0  0  0  0  0  0
    6.9932    7.9233    0.2274 C   0  0  0  0  0  0  0  0  0  0  0  0
    7.7994    8.5226   -0.9031 C   0  0  0  0  0  0  0  0  0  0  0  0
    8.9137    9.3311   -0.6283 C   0  0  0  0  0  0  0  0  0  0  0  0
    9.6696    9.8645   -1.6751 C   0  0  0  0  0  0  0  0  0  0  0  0
    9.3146    9.5918   -2.9889 C   0  0  0  0  0  0  0  0  0  0  0  0
   10.0419   10.1049   -3.9910 F   0  0  0  0  0  0  0  0  0  0  0  0
    8.2133    8.7948   -3.2827 C   0  0  0  0  0  0  0  0  0  0  0  0
    7.4500    8.2651   -2.2387 C   0  0  0  0  0  0  0  0  0  0  0  0
    6.2577    5.8264    1.3495 N   0  0  0  0  0  0  0  0  0  0  0  0
    4.9499    5.5521    1.0227 C   0  0  0  0  0  0  0  0  0  0  0  0
    4.4476    5.9110   -0.0431 O   0  0  0  0  0  0  0  0  0  0  0  0
    4.1571    4.7383    2.0653 C   0  0  1  0  0  0  0  0  0  0  0  0
    4.0444    5.4362    3.4313 C   0  0  0  0  0  0  0  0  0  0  0  0
    3.3757    6.7949    3.4007 C   0  0  0  0  0  0  0  0  0  0  0  0
    1.9756    6.8950    3.4247 C   0  0  0  0  0  0  0  0  0  0  0  0
    1.3565    8.1447    3.3552 C   0  0  0  0  0  0  0  0  0  0  0  0
    2.1371    9.2893    3.2779 C   0  0  0  0  0  0  0  0  0  0  0  0
    1.5431   10.4889    3.1918 F   0  0  0  0  0  0  0  0  0  0  0  0
    3.5252    9.2156    3.2677 C   0  0  0  0  0  0  0  0  0  0  0  0
    4.1459    7.9651    3.3343 C   0  0  0  0  0  0  0  0  0  0  0  0
    2.8495    4.4234    1.4853 N   0  0  0  0  0  0  0  0  0  0  0  0
    2.2902    3.1713    1.5974 C   0  0  0  0  0  0  0  0  0  0  0  0
    2.7459    2.2807    2.3022 O   0  0  0  0  0  0  0  0  0  0  0  0
    1.1155    2.9016    0.7311 C   0  0  0  0  0  0  0  0  0  0  0  0
    0.1460    3.8802    0.4732 C   0  0  0  0  0  0  0  0  0  0  0  0
   -0.9329    3.5950   -0.3765 C   0  0  0  0  0  0  0  0  0  0  0  0
   -1.0201    2.3359   -0.9801 C   0  0  0  0  0  0  0  0  0  0  0  0
   -0.0439    1.3622   -0.7258 C   0  0  0  0  0  0  0  0  0  0  0  0
    1.0136    1.6341    0.1441 C   0  0  0  0  0  0  0  0  0  0  0  0
   -0.1886    0.0574   -1.4116 C   0  0  0  0  0  0  0  0  0  0  0  0
   -1.3064   -0.3727   -1.6709 O   0  0  0  0  0  0  0  0  0  0  0  0
    0.9770   -0.5941   -1.7584 N   0  0  0  0  0  0  0  0  0  0  0  0
    0.9164   -1.8471   -2.5076 C   0  0  0  0  0  0  0  0  0  0  0  0
    0.4038   -3.0154   -1.6508 C   0  0  2  0  0  0  0  0  0  0  0  0
    1.3428   -3.3250   -0.5657 N   0  0  0  0  0  0  0  0  0  0  0  0
    0.9202   -3.8797    0.6204 C   0  0  0  0  0  0  0  0  0  0  0  0
   -0.2311   -4.2744    0.7886 O   0  0  0  0  0  0  0  0  0  0  0  0
    2.0158   -3.9178    1.6988 C   0  0  1  0  0  0  0  0  0  0  0  0
    1.4787   -4.3977    3.0408 C   0  0  0  0  0  0  0  0  0  0  0  0
    3.1019   -4.7812    1.2372 N   0  0  0  0  0  0  0  0  0  0  0  0
    4.4309   -4.5110    1.5091 C   0  0  0  0  0  0  0  0  0  0  0  0
    4.8146   -3.4603    2.0120 O   0  0  0  0  0  0  0  0  0  0  0  0
    0.1706   -4.2554   -2.5210 C   0  0  0  0  0  0  0  0  0  0  0  0
    0.7287   -4.4403   -3.5960 O   0  0  0  0  0  0  0  0  0  0  0  0
   -0.6878   -5.1737   -1.9480 N   0  0  0  0  0  0  0  0  0  0  0  0
   -1.1457   -6.3619   -2.6678 C   0  0  1  0  0  0  0  0  0  0  0  0
   -0.0576   -7.4176   -2.9223 C   0  0  0  0  0  0  0  0  0  0  0  0
    0.7378   -7.8825   -1.7195 C   0  0  0  0  0  0  0  0  0  0  0  0
    0.1591   -8.7075   -0.7411 C   0  0  0  0  0  0  0  0  0  0  0  0
    0.9303   -9.1937    0.3153 C   0  0  0  0  0  0  0  0  0  0  0  0
    2.2879   -8.8995    0.3881 C   0  0  0  0  0  0  0  0  0  0  0  0
    2.8750   -8.0923   -0.5845 C   0  0  0  0  0  0  0  0  0  0  0  0
    2.1022   -7.5708   -1.6206 C   0  0  0  0  0  0  0  0  0  0  0  0
   -2.4135   -6.9790   -2.0433 C   0  0  0  0  0  0  0  0  0  0  0  0
   -2.8128   -8.1103   -2.3184 O   0  0  0  0  0  0  0  0  0  0  0  0
   -3.1361   -6.1290   -1.2301 N   0  0  0  0  0  0  0  0  0  0  0  0
   -4.4769   -6.4908   -0.7659 C   0  0  1  0  0  0  0  0  0  0  0  0
   -4.5984   -6.3141    0.7573 C   0  0  0  0  0  0  0  0  0  0  0  0
   -5.5686   -7.2918    1.3821 C   0  0  0  0  0  0  0  0  0  0  0  0
   -5.1721   -8.6137    1.6274 C   0  0  0  0  0  0  0  0  0  0  0  0
   -6.0562   -9.5265    2.2001 C   0  0  0  0  0  0  0  0  0  0  0  0
   -7.3650   -9.1453    2.5322 C   0  0  0  0  0  0  0  0  0  0  0  0
   -8.2712  -10.0611    3.0939 C   0  0  0  0  0  0  0  0  0  0  0  0
   -9.5797   -9.6784    3.3825 C   0  0  0  0  0  0  0  0  0  0  0  0
   -9.9999   -8.3770    3.1198 C   0  0  0  0  0  0  0  0  0  0  0  0
   -9.1062   -7.4505    2.5745 C   0  0  0  0  0  0  0  0  0  0  0  0
   -7.7845   -7.8184    2.2721 C   0  0  0  0  0  0  0  0  0  0  0  0
   -6.8775   -6.9058    1.7072 C   0  0  0  0  0  0  0  0  0  0  0  0
   -5.4778   -5.5865   -1.5099 C   0  0  0  0  0  0  0  0  0  0  0  0
   -5.1524   -4.5055   -2.0061 O   0  0  0  0  0  0  0  0  0  0  0  0
   -6.7710   -6.0495   -1.5449 N   0  0  0  0  0  0  0  0  0  0  0  0
   -7.8247   -5.3828   -2.3015 C   0  0  1  0  0  0  0  0  0  0  0  0
   -8.9229   -6.3727   -2.7157 C   0  0  0  0  0  0  0  0  0  0  0  0
   -8.5173   -7.3582   -3.8198 C   0  0  0  0  0  0  0  0  0  0  0  0
   -7.3963   -8.3449   -3.4916 C   0  0  0  0  0  0  0  0  0  0  0  0
   -7.5493   -8.9588   -2.1796 N   0  0  0  0  0  0  0  0  0  0  0  0
   -8.4736   -9.8970   -1.8765 C   0  0  0  0  0  0  0  0  0  0  0  0
   -9.4347  -10.3551   -2.5846 N   0  0  0  0  0  0  0  0  0  0  0  0
   -8.2982  -10.3691   -0.6286 N   0  0  0  0  0  0  0  0  0  0  0  0
   -8.4228   -4.2284   -1.4590 C   0  0  0  0  0  0  0  0  0  0  0  0
   -9.5929   -4.1972   -1.0783 O   0  0  0  0  0  0  0  0  0  0  0  0
   -7.5369   -3.2099   -1.1647 N   0  0  0  0  0  0  0  0  0  0  0  0
   -8.0143   -1.9484   -0.6172 C   0  0  1  0  0  0  0  0  0  0  0  0
   -7.0609   -1.4023    0.4441 C   0  0  0  0  0  0  0  0  0  0  0  0
   -6.8796   -2.3389    1.6509 C   0  0  0  0  0  0  0  0  0  0  0  0
   -8.1794   -2.8160    2.3027 C   0  0  0  0  0  0  0  0  0  0  0  0
   -8.9458   -1.6796    2.7871 N   0  0  0  0  0  0  0  0  0  0  0  0
  -10.2901   -1.5539    2.6533 C   0  0  0  0  0  0  0  0  0  0  0  0
  -11.0677   -2.0425    1.7649 N   0  0  0  0  0  0  0  0  0  0  0  0
  -10.8097   -0.7831    3.6211 N   0  0  0  0  0  0  0  0  0  0  0  0
   -8.2381   -0.9260   -1.7526 C   0  0  0  0  0  0  0  0  0  0  0  0
   -7.6406   -0.9670   -2.8218 O   0  0  0  0  0  0  0  0  0  0  0  0
   -9.1772    0.0440   -1.4461 N   0  0  0  0  0  0  0  0  0  0  0  0
   -9.7329    0.9154   -2.4912 C   0  0  1  0  0  0  0  0  0  0  0  0
  -11.2295    1.1230   -2.1930 C   0  0  0  0  0  0  0  0  0  0  0  0
  -11.9791    1.9895   -3.2172 C   0  0  0  0  0  0  0  0  0  0  0  0
  -13.4674    2.1060   -2.8816 C   0  0  0  0  0  0  0  0  0  0  0  0
  -13.6220    2.7599   -1.5909 N   0  0  0  0  0  0  0  0  0  0  0  0
  -14.7176    2.6752   -0.8091 C   0  0  0  0  0  0  0  0  0  0  0  0
  -15.8243    2.0784   -1.0410 N   0  0  0  0  0  0  0  0  0  0  0  0
  -14.5295    3.2939    0.3746 N   0  0  0  0  0  0  0  0  0  0  0  0
   -9.0145    2.2783   -2.5424 C   0  0  0  0  0  0  0  0  0  0  0  0
   -9.0464    2.9910   -3.5468 O   0  0  0  0  0  0  0  0  0  0  0  0
   -8.5631    2.7436   -1.3236 N   0  0  0  0  0  0  0  0  0  0  0  0
   -8.1282    4.1219   -1.1508 C   0  0  1  0  0  0  0  0  0  0  0  0
   -8.9650    4.8499   -0.0841 C   0  0  0  0  0  0  0  0  0  0  0  0
   -9.0782    4.1313    1.2688 C   0  0  0  0  0  0  0  0  0  0  0  0
  -10.3140    3.2373    1.4295 C   0  0  0  0  0  0  0  0  0  0  0  0
  -11.5713    3.9461    1.2057 N   0  0  0  0  0  0  0  0  0  0  0  0
  -11.9800    4.9331    2.0314 C   0  0  0  0  0  0  0  0  0  0  0  0
  -11.4888    5.1874    3.1904 N   0  0  0  0  0  0  0  0  0  0  0  0
  -12.9842    5.6533    1.4894 N   0  0  0  0  0  0  0  0  0  0  0  0
   -6.6120    4.2939   -0.8899 C   0  0  0  0  0  0  0  0  0  0  0  0
   -5.8895    3.3953   -0.4714 O   0  0  0  0  0  0  0  0  0  0  0  0
   -6.1795    5.5816   -1.1310 N   0  0  0  0  0  0  0  0  0  0  0  0
   -4.7938    6.0499   -0.9821 C   0  0  2  0  0  0  0  0  0  0  0  0
   -4.8494    7.5863   -1.1463 C   0  0  0  0  0  0  0  0  0  0  0  0
   -4.2437    8.2145   -2.0105 O   0  0  0  0  0  0  0  0  0  0  0  0
   -5.6752    8.2084   -0.2278 N   0  0  0  0  0  0  0  0  0  0  0  0
   -5.7541    9.6704   -0.1404 C   0  0  1  0  0  0  0  0  0  0  0  0
   -7.0565   10.1460   -0.8031 C   0  0  0  0  0  0  0  0  0  0  0  0
   -7.1518   11.6700   -0.9782 C   0  0  0  0  0  0  0  0  0  0  0  0
   -8.1035   12.3127    0.0353 C   0  0  0  0  0  0  0  0  0  0  0  0
   -8.1098   13.8427   -0.0177 C   0  0  0  0  0  0  0  0  0  0  0  0
   -6.8514   14.4269    0.4339 N   0  0  0  0  0  0  0  0  0  0  0  0
   -5.6536   10.1023    1.3307 C   0  0  0  0  0  0  0  0  0  0  0  0
   -5.5739   11.2423    1.7548 O   0  0  0  0  0  0  0  0  0  0  0  0
   -5.6935    9.0663    2.2013 O   0  0  0  0  0  0  0  0  0  0  0  0
   -3.8387    5.4136   -2.0087 C   0  0  0  0  0  0  0  0  0  0  0  0
   -3.0101    4.3651   -1.4388 N   0  0  0  0  0  0  0  0  0  0  0  0
   -1.8885    4.6907   -0.7011 C   0  0  0  0  0  0  0  0  0  0  0  0
   -1.6462    5.8362   -0.3366 O   0  0  0  0  0  0  0  0  0  0  0  0
    4.2248   -7.1299    2.3667 H   0  0  0  0  0  0  0  0  0  0  0  0
    5.9254   -7.5707    2.1407 H   0  0  0  0  0  0  0  0  0  0  0  0
    5.4792   -6.2969    3.2921 H   0  0  0  0  0  0  0  0  0  0  0  0
    5.0531   -6.1358    0.2611 H   0  0  0  0  0  0  0  0  0  0  0  0
    7.1660   -4.7631    1.8331 H   0  0  0  0  0  0  0  0  0  0  0  0
    9.0881   -5.6668   -1.0714 H   0  0  0  0  0  0  0  0  0  0  0  0
    9.3052   -4.8931    1.8728 H   0  0  0  0  0  0  0  0  0  0  0  0
   10.7044   -5.0793    0.8477 H   0  0  0  0  0  0  0  0  0  0  0  0
   10.3260   -7.0813    2.1117 H   0  0  0  0  0  0  0  0  0  0  0  0
    8.6809   -7.2450    1.5647 H   0  0  0  0  0  0  0  0  0  0  0  0
    9.3253   -7.8986   -0.6368 H   0  0  0  0  0  0  0  0  0  0  0  0
   10.3334   -8.8244    0.4567 H   0  0  0  0  0  0  0  0  0  0  0  0
   11.2716   -7.4237   -1.5894 H   0  0  0  0  0  0  0  0  0  0  0  0
   12.2230   -7.9167    1.6255 H   0  0  0  0  0  0  0  0  0  0  0  0
   14.3984   -7.0987   -0.7291 H   0  0  0  0  0  0  0  0  0  0  0  0
   13.3025   -6.1451   -1.4924 H   0  0  0  0  0  0  0  0  0  0  0  0
    9.1032   -3.5706   -1.8217 H   0  0  0  0  0  0  0  0  0  0  0  0
    9.2865   -0.8363   -1.2918 H   0  0  0  0  0  0  0  0  0  0  0  0
   11.2125   -0.8322   -2.5858 H   0  0  0  0  0  0  0  0  0  0  0  0
   10.7876   -2.5108   -2.5541 H   0  0  0  0  0  0  0  0  0  0  0  0
   13.4510   -0.8091   -3.0582 H   0  0  0  0  0  0  0  0  0  0  0  0
   15.7604   -1.4560   -2.5977 H   0  0  0  0  0  0  0  0  0  0  0  0
   17.4033   -2.8064   -1.3084 H   0  0  0  0  0  0  0  0  0  0  0  0
   17.8867   -4.4480    0.4659 H   0  0  0  0  0  0  0  0  0  0  0  0
   16.0307   -5.4235    1.7983 H   0  0  0  0  0  0  0  0  0  0  0  0
   13.7102   -4.7509    1.3660 H   0  0  0  0  0  0  0  0  0  0  0  0
   12.0772   -3.4275    0.0747 H   0  0  0  0  0  0  0  0  0  0  0  0
   10.2476   -0.6497    1.1556 H   0  0  0  0  0  0  0  0  0  0  0  0
   10.6283    1.4719    1.9689 H   0  0  0  0  0  0  0  0  0  0  0  0
   12.4681   -0.1067    2.3283 H   0  0  0  0  0  0  0  0  0  0  0  0
   13.5285    0.7794    1.2556 H   0  0  0  0  0  0  0  0  0  0  0  0
   14.2202    1.3672    3.4491 H   0  0  0  0  0  0  0  0  0  0  0  0
   12.5796    1.5550    4.0335 H   0  0  0  0  0  0  0  0  0  0  0  0
   14.2623    3.6262    3.1487 H   0  0  0  0  0  0  0  0  0  0  0  0
   12.5443    3.7367    3.5096 H   0  0  0  0  0  0  0  0  0  0  0  0
   13.7512    3.1455    0.7471 H   0  0  0  0  0  0  0  0  0  0  0  0
   12.9930    4.6387    1.2828 H   0  0  0  0  0  0  0  0  0  0  0  0
   11.2320    5.7095    0.9468 H   0  0  0  0  0  0  0  0  0  0  0  0
   12.4276    4.4146   -1.1493 H   0  0  0  0  0  0  0  0  0  0  0  0
   12.9715    6.7898   -0.4173 H   0  0  0  0  0  0  0  0  0  0  0  0
   11.6566    7.3595   -1.4807 H   0  0  0  0  0  0  0  0  0  0  0  0
   13.0440    6.5383   -2.1732 H   0  0  0  0  0  0  0  0  0  0  0  0
   11.4708    4.8174   -3.0731 H   0  0  0  0  0  0  0  0  0  0  0  0
    9.1085    5.5033   -1.0813 H   0  0  0  0  0  0  0  0  0  0  0  0
    6.9863    5.8998   -0.5920 H   0  0  0  0  0  0  0  0  0  0  0  0
    7.2522    8.4194    1.1712 H   0  0  0  0  0  0  0  0  0  0  0  0
    5.9372    8.1691    0.0559 H   0  0  0  0  0  0  0  0  0  0  0  0
    9.2056    9.5408    0.3986 H   0  0  0  0  0  0  0  0  0  0  0  0
   10.5317   10.4924   -1.4711 H   0  0  0  0  0  0  0  0  0  0  0  0
    7.9514    8.5963   -4.3167 H   0  0  0  0  0  0  0  0  0  0  0  0
    6.5835    7.6470   -2.4735 H   0  0  0  0  0  0  0  0  0  0  0  0
    6.6849    5.4034    2.1681 H   0  0  0  0  0  0  0  0  0  0  0  0
    4.7030    3.7952    2.2067 H   0  0  0  0  0  0  0  0  0  0  0  0
    5.0420    5.5475    3.8735 H   0  0  0  0  0  0  0  0  0  0  0  0
    3.4917    4.7930    4.1264 H   0  0  0  0  0  0  0  0  0  0  0  0
    1.3632    5.9998    3.4819 H   0  0  0  0  0  0  0  0  0  0  0  0
    0.2746    8.2280    3.3528 H   0  0  0  0  0  0  0  0  0  0  0  0
    4.1121   10.1244    3.2021 H   0  0  0  0  0  0  0  0  0  0  0  0
    5.2315    7.9156    3.3175 H   0  0  0  0  0  0  0  0  0  0  0  0
    2.5586    5.0420    0.7294 H   0  0  0  0  0  0  0  0  0  0  0  0
    0.2250    4.8641    0.9296 H   0  0  0  0  0  0  0  0  0  0  0  0
   -1.8164    2.0982   -1.6835 H   0  0  0  0  0  0  0  0  0  0  0  0
    1.7553    0.8742    0.3790 H   0  0  0  0  0  0  0  0  0  0  0  0
    1.8633   -0.1104   -1.7023 H   0  0  0  0  0  0  0  0  0  0  0  0
    1.9269   -2.0472   -2.8797 H   0  0  0  0  0  0  0  0  0  0  0  0
    0.2631   -1.6949   -3.3766 H   0  0  0  0  0  0  0  0  0  0  0  0
   -0.5597   -2.7492   -1.1988 H   0  0  0  0  0  0  0  0  0  0  0  0
    2.3400   -3.2305   -0.7301 H   0  0  0  0  0  0  0  0  0  0  0  0
    2.3969   -2.8942    1.8168 H   0  0  0  0  0  0  0  0  0  0  0  0
    0.6196   -3.7970    3.3526 H   0  0  0  0  0  0  0  0  0  0  0  0
    2.2504   -4.3204    3.8125 H   0  0  0  0  0  0  0  0  0  0  0  0
    1.1573   -5.4438    2.9905 H   0  0  0  0  0  0  0  0  0  0  0  0
    2.8415   -5.6996    0.8889 H   0  0  0  0  0  0  0  0  0  0  0  0
   -0.7980   -5.1366   -0.9339 H   0  0  0  0  0  0  0  0  0  0  0  0
   -1.4765   -6.0016   -3.6517 H   0  0  0  0  0  0  0  0  0  0  0  0
   -0.4936   -8.3058   -3.3990 H   0  0  0  0  0  0  0  0  0  0  0  0
    0.6458   -7.0216   -3.6665 H   0  0  0  0  0  0  0  0  0  0  0  0
   -0.8856   -9.0018   -0.8092 H   0  0  0  0  0  0  0  0  0  0  0  0
    0.4709   -9.8479    1.0560 H   0  0  0  0  0  0  0  0  0  0  0  0
    2.8888   -9.3159    1.1927 H   0  0  0  0  0  0  0  0  0  0  0  0
    3.9428   -7.8989   -0.5614 H   0  0  0  0  0  0  0  0  0  0  0  0
    2.5808   -6.9485   -2.3805 H   0  0  0  0  0  0  0  0  0  0  0  0
   -2.9517   -5.1344   -1.3472 H   0  0  0  0  0  0  0  0  0  0  0  0
   -4.6874   -7.5254   -1.0554 H   0  0  0  0  0  0  0  0  0  0  0  0
   -4.8932   -5.2893    1.0086 H   0  0  0  0  0  0  0  0  0  0  0  0
   -3.6230   -6.4693    1.2358 H   0  0  0  0  0  0  0  0  0  0  0  0
   -4.1624   -8.9399    1.3850 H   0  0  0  0  0  0  0  0  0  0  0  0
   -5.7189  -10.5456    2.3792 H   0  0  0  0  0  0  0  0  0  0  0  0
   -7.9584  -11.0799    3.3054 H   0  0  0  0  0  0  0  0  0  0  0  0
  -10.2759  -10.3974    3.8110 H   0  0  0  0  0  0  0  0  0  0  0  0
  -11.0208   -8.0773    3.3381 H   0  0  0  0  0  0  0  0  0  0  0  0
   -9.4608   -6.4441    2.3707 H   0  0  0  0  0  0  0  0  0  0  0  0
   -7.2003   -5.8850    1.5177 H   0  0  0  0  0  0  0  0  0  0  0  0
   -7.0091   -6.9416   -1.1134 H   0  0  0  0  0  0  0  0  0  0  0  0
   -7.3880   -4.9276   -3.2028 H   0  0  0  0  0  0  0  0  0  0  0  0
   -9.2944   -6.9158   -1.8391 H   0  0  0  0  0  0  0  0  0  0  0  0
   -9.7826   -5.8052   -3.0987 H   0  0  0  0  0  0  0  0  0  0  0  0
   -9.4170   -7.9194   -4.1003 H   0  0  0  0  0  0  0  0  0  0  0  0
   -8.2330   -6.7928   -4.7177 H   0  0  0  0  0  0  0  0  0  0  0  0
   -6.4314   -7.8247   -3.5209 H   0  0  0  0  0  0  0  0  0  0  0  0
   -7.3422   -9.1212   -4.2621 H   0  0  0  0  0  0  0  0  0  0  0  0
   -6.6507   -9.2385   -1.7922 H   0  0  0  0  0  0  0  0  0  0  0  0
   -9.4322   -9.9244   -3.5082 H   0  0  0  0  0  0  0  0  0  0  0  0
   -9.0855  -10.9563   -0.3766 H   0  0  0  0  0  0  0  0  0  0  0  0
   -8.1942   -9.6296    0.0585 H   0  0  0  0  0  0  0  0  0  0  0  0
   -6.6671   -3.1909   -1.7004 H   0  0  0  0  0  0  0  0  0  0  0  0
   -8.9944   -2.1156   -0.1703 H   0  0  0  0  0  0  0  0  0  0  0  0
   -6.0763   -1.2159   -0.0035 H   0  0  0  0  0  0  0  0  0  0  0  0
   -7.4215   -0.4279    0.7993 H   0  0  0  0  0  0  0  0  0  0  0  0
   -6.2593   -1.8264    2.3969 H   0  0  0  0  0  0  0  0  0  0  0  0
   -6.3114   -3.2222    1.3354 H   0  0  0  0  0  0  0  0  0  0  0  0
   -7.9348   -3.4572    3.1574 H   0  0  0  0  0  0  0  0  0  0  0  0
   -8.7515   -3.4439    1.6153 H   0  0  0  0  0  0  0  0  0  0  0  0
   -8.6543   -1.4125    3.7229 H   0  0  0  0  0  0  0  0  0  0  0  0
  -10.5658   -2.6421    1.1076 H   0  0  0  0  0  0  0  0  0  0  0  0
  -11.8011   -0.6336    3.4386 H   0  0  0  0  0  0  0  0  0  0  0  0
  -10.3334    0.0966    3.7720 H   0  0  0  0  0  0  0  0  0  0  0  0
   -9.7467   -0.1067   -0.6160 H   0  0  0  0  0  0  0  0  0  0  0  0
   -9.6013    0.4335   -3.4656 H   0  0  0  0  0  0  0  0  0  0  0  0
  -11.3368    1.5660   -1.1980 H   0  0  0  0  0  0  0  0  0  0  0  0
  -11.7155    0.1406   -2.1429 H   0  0  0  0  0  0  0  0  0  0  0  0
  -11.8720    1.5569   -4.2145 H   0  0  0  0  0  0  0  0  0  0  0  0
  -11.5474    2.9990   -3.2448 H   0  0  0  0  0  0  0  0  0  0  0  0
  -13.9117    1.1051   -2.8600 H   0  0  0  0  0  0  0  0  0  0  0  0
  -13.9799    2.6921   -3.6486 H   0  0  0  0  0  0  0  0  0  0  0  0
  -13.1783    3.6697   -1.5368 H   0  0  0  0  0  0  0  0  0  0  0  0
  -15.8057    1.6549   -1.9687 H   0  0  0  0  0  0  0  0  0  0  0  0
  -15.2875    3.0162    0.9947 H   0  0  0  0  0  0  0  0  0  0  0  0
  -13.6389    3.0316    0.7899 H   0  0  0  0  0  0  0  0  0  0  0  0
   -8.1863    2.0395   -0.6940 H   0  0  0  0  0  0  0  0  0  0  0  0
   -8.3160    4.6477   -2.0963 H   0  0  0  0  0  0  0  0  0  0  0  0
   -8.5273    5.8397    0.0986 H   0  0  0  0  0  0  0  0  0  0  0  0
   -9.9572    5.0408   -0.5020 H   0  0  0  0  0  0  0  0  0  0  0  0
   -8.1832    3.5320    1.4619 H   0  0  0  0  0  0  0  0  0  0  0  0
   -9.0950    4.8968    2.0543 H   0  0  0  0  0  0  0  0  0  0  0  0
  -10.2676    2.3989    0.7298 H   0  0  0  0  0  0  0  0  0  0  0  0
  -10.3229    2.7920    2.4322 H   0  0  0  0  0  0  0  0  0  0  0  0
  -11.7340    4.1585    0.2309 H   0  0  0  0  0  0  0  0  0  0  0  0
  -11.9474    5.9989    3.5978 H   0  0  0  0  0  0  0  0  0  0  0  0
  -13.4682    6.2587    2.1370 H   0  0  0  0  0  0  0  0  0  0  0  0
  -13.6606    5.0956    0.9652 H   0  0  0  0  0  0  0  0  0  0  0  0
   -6.8115    6.2166   -1.6086 H   0  0  0  0  0  0  0  0  0  0  0  0
   -4.4771    5.8268    0.0454 H   0  0  0  0  0  0  0  0  0  0  0  0
   -5.8822    7.7036    0.6311 H   0  0  0  0  0  0  0  0  0  0  0  0
   -4.8840   10.1023   -0.6482 H   0  0  0  0  0  0  0  0  0  0  0  0
   -7.9281    9.7629   -0.2540 H   0  0  0  0  0  0  0  0  0  0  0  0
   -7.1097    9.6938   -1.8029 H   0  0  0  0  0  0  0  0  0  0  0  0
   -7.5433   11.8824   -1.9817 H   0  0  0  0  0  0  0  0  0  0  0  0
   -6.1521   12.1181   -0.9342 H   0  0  0  0  0  0  0  0  0  0  0  0
   -7.8706   11.9850    1.0529 H   0  0  0  0  0  0  0  0  0  0  0  0
   -9.1236   11.9583   -0.1638 H   0  0  0  0  0  0  0  0  0  0  0  0
   -8.9097   14.2193    0.6303 H   0  0  0  0  0  0  0  0  0  0  0  0
   -8.3276   14.1889   -1.0326 H   0  0  0  0  0  0  0  0  0  0  0  0
   -6.1009   14.1742   -0.2109 H   0  0  0  0  0  0  0  0  0  0  0  0
   -6.5826   14.0052    1.3254 H   0  0  0  0  0  0  0  0  0  0  0  0
   -5.5978    9.5038    3.0748 H   0  0  0  0  0  0  0  0  0  0  0  0
   -3.1520    6.1524   -2.4378 H   0  0  0  0  0  0  0  0  0  0  0  0
   -4.3941    4.9601   -2.8380 H   0  0  0  0  0  0  0  0  0  0  0  0
   -3.4018    3.4322   -1.3941 H   0  0  0  0  0  0  0  0  0  0  0  0
  1  2  1  0
  2  3  1  0
  3  4  1  0
  4  5  2  0
  4  6  1  0
  6  7  1  0
  7  8  1  0
  8  9  1  0
  9 10  1  0
 10 11  1  0
 11 12  2  3
 11 13  1  0
  6 14  1  0
 14 15  1  0
 15 16  2  0
 15 17  1  0
 17 18  1  0
 18 19  1  0
 19 20  1  0
 20 21  2  0
 21 22  1  0
 22 23  2  0
 23 24  1  0
 24 25  2  0
 25 26  1  0
 26 27  2  0
 27 28  1  0
 17 29  1  0
 29 30  1  0
 30 31  2  0
 30 32  1  0
 32 33  1  0
 33 34  1  0
 34 35  1  0
 35 36  1  0
 36 37  1  0
 37 38  1  0
 38 39  2  0
 38 40  1  0
 40 41  1  0
 41 42  1  0
 41 43  1  0
 40 44  1  0
 44 45  1  0
 45 46  2  0
 45 47  1  0
 47 48  1  0
 48 49  1  0
 49 50  1  0
 50 51  2  0
 51 52  1  0
 52 53  1  0
 52 54  2  0
 54 55  1  0
 47 56  1  0
 56 57  1  0
 57 58  2  0
 57 59  1  0
 59 60  1  0
 60 61  1  0
 61 62  1  0
 62 63  2  0
 63 64  1  0
 64 65  1  0
 64 66  2  0
 66 67  1  0
 59 68  1  0
 68 69  1  0
 69 70  2  0
 69 71  1  0
 71 72  1  0
 72 73  2  0
 73 74  1  0
 74 75  2  0
 75 76  1  0
 75 77  1  0
 77 78  2  0
 77 79  1  0
 79 80  1  0
 80 81  1  0
 81 82  1  0
 82 83  1  0
 83 84  2  0
 83 85  1  0
 85 86  1  0
 85 87  1  0
 87 88  1  0
 88 89  2  0
 81 90  1  0
 90 91  2  0
 90 92  1  0
 92 93  1  0
 93 94  1  0
 94 95  1  0
 95 96  2  0
 96 97  1  0
 97 98  2  0
 98 99  1  0
 99100  2  0
 93101  1  0
101102  2  0
101103  1  0
103104  1  0
104105  1  0
105106  1  0
106107  1  0
107108  2  0
108109  1  0
109110  2  0
110111  1  0
111112  2  0
112113  1  0
113114  2  0
114115  1  0
104116  1  0
116117  2  0
116118  1  0
118119  1  0
119120  1  0
120121  1  0
121122  1  0
122123  1  0
123124  1  0
124125  2  3
124126  1  0
119127  1  0
127128  2  0
127129  1  0
129130  1  0
130131  1  0
131132  1  0
132133  1  0
133134  1  0
134135  1  0
135136  2  3
135137  1  0
130138  1  0
138139  2  0
138140  1  0
140141  1  0
141142  1  0
142143  1  0
143144  1  0
144145  1  0
145146  1  0
146147  2  3
146148  1  0
141149  1  0
149150  2  0
149151  1  0
151152  1  0
152153  1  0
153154  1  0
154155  1  0
155156  1  0
156157  1  0
157158  2  3
157159  1  0
152160  1  0
160161  2  0
160162  1  0
162163  1  0
163164  1  0
164165  2  0
164166  1  0
166167  1  0
167168  1  0
168169  1  0
169170  1  0
170171  1  0
171172  1  0
167173  1  0
173174  2  0
173175  1  0
163176  1  0
176177  1  0
177178  1  0
178179  2  0
 88  2  1  0
100 95  1  0
115106  2  0
 28 19  2  0
 37 32  1  0
 55 49  2  0
 67 61  2  0
 76 71  2  0
114109  1  0
 27 22  1  0
178 73  1  0
  1180  1  0
  1181  1  0
  1182  1  0
  2183  1  6
  3184  1  0
  6185  1  6
  7186  1  0
  7187  1  0
  8188  1  0
  8189  1  0
  9190  1  0
  9191  1  0
 10192  1  0
 12193  1  0
 13194  1  0
 13195  1  0
 14196  1  0
 17197  1  6
 18198  1  0
 18199  1  0
 20200  1  0
 21201  1  0
 23202  1  0
 24203  1  0
 25204  1  0
 26205  1  0
 28206  1  0
 29207  1  0
 32208  1  1
 33209  1  0
 33210  1  0
 34211  1  0
 34212  1  0
 35213  1  0
 35214  1  0
 36215  1  0
 36216  1  0
 40217  1  1
 41218  1  1
 42219  1  0
 42220  1  0
 42221  1  0
 43222  1  0
 44223  1  0
 47224  1  6
 48225  1  0
 48226  1  0
 50227  1  0
 51228  1  0
 54229  1  0
 55230  1  0
 56231  1  0
 59232  1  1
 60233  1  0
 60234  1  0
 62235  1  0
 63236  1  0
 66237  1  0
 67238  1  0
 68239  1  0
 72240  1  0
 74241  1  0
 76242  1  0
 79243  1  0
 80244  1  0
 80245  1  0
 81246  1  1
 82247  1  0
 85248  1  1
 86249  1  0
 86250  1  0
 86251  1  0
 87252  1  0
 92253  1  0
 93254  1  6
 94255  1  0
 94256  1  0
 96257  1  0
 97258  1  0
 98259  1  0
 99260  1  0
100261  1  0
103262  1  0
104263  1  1
105264  1  0
105265  1  0
107266  1  0
108267  1  0
110268  1  0
111269  1  0
112270  1  0
113271  1  0
115272  1  0
118273  1  0
119274  1  6
120275  1  0
120276  1  0
121277  1  0
121278  1  0
122279  1  0
122280  1  0
123281  1  0
125282  1  0
126283  1  0
126284  1  0
129285  1  0
130286  1  1
131287  1  0
131288  1  0
132289  1  0
132290  1  0
133291  1  0
133292  1  0
134293  1  0
136294  1  0
137295  1  0
137296  1  0
140297  1  0
141298  1  6
142299  1  0
142300  1  0
143301  1  0
143302  1  0
144303  1  0
144304  1  0
145305  1  0
147306  1  0
148307  1  0
148308  1  0
151309  1  0
152310  1  6
153311  1  0
153312  1  0
154313  1  0
154314  1  0
155315  1  0
155316  1  0
156317  1  0
158318  1  0
159319  1  0
159320  1  0
162321  1  0
163322  1  1
166323  1  0
167324  1  6
168325  1  0
168326  1  0
169327  1  0
169328  1  0
170329  1  0
170330  1  0
171331  1  0
171332  1  0
172333  1  0
172334  1  0
175335  1  0
176336  1  0
176337  1  0
177338  1  0
M  END
$$$$
