
     RDKit          3D

 41 42  0  0  0  0  0  0  0  0999 V2000
    1.0281   -2.0750   -0.1909 O   0  0  0  0  0  0  0  0  0  0  0  0
    1.2051   -0.9342    0.2308 C   0  0  0  0  0  0  0  0  0  0  0  0
    0.1860   -0.1715    0.7722 N   0  0  0  0  0  0  0  0  0  0  0  0
   -1.2039   -0.6392    0.7018 C   0  0  1  0  0  0  0  0  0  0  0  0
   -1.4401   -1.8609    1.6176 C   0  0  0  0  0  0  0  0  0  0  0  0
   -2.3256   -2.7710    0.9806 O   0  0  0  0  0  0  0  0  0  0  0  0
   -1.6706   -4.0520    0.2732 P   0  0  0  0  0  0  0  0  0  0  0  0
   -0.8423   -4.9453    1.1306 O   0  0  0  0  0  0  0  0  0  0  0  0
   -0.9350   -3.4836   -1.0207 O   0  0  0  0  0  0  0  0  0  0  0  0
   -2.9244   -4.7983   -0.3788 O   0  0  0  0  0  0  0  0  0  0  0  0
   -2.2042    0.4807    1.0676 C   0  0  0  0  0  0  0  0  0  0  0  0
   -2.1028    1.6961    0.1726 C   0  0  0  0  0  0  0  0  0  0  0  0
   -2.4378    1.6094   -1.1856 C   0  0  0  0  0  0  0  0  0  0  0  0
   -2.3197    2.7243   -2.0163 C   0  0  0  0  0  0  0  0  0  0  0  0
   -1.8722    3.9371   -1.4971 C   0  0  0  0  0  0  0  0  0  0  0  0
   -1.5481    4.0381   -0.1457 C   0  0  0  0  0  0  0  0  0  0  0  0
   -1.6656    2.9249    0.6871 C   0  0  0  0  0  0  0  0  0  0  0  0
    2.5434   -0.2892    0.1351 C   0  0  0  0  0  0  0  0  0  0  0  0
    2.9350    0.7397    1.0014 C   0  0  0  0  0  0  0  0  0  0  0  0
    4.2027    1.3127    0.8743 C   0  0  0  0  0  0  0  0  0  0  0  0
    5.0817    0.8598   -0.1109 C   0  0  0  0  0  0  0  0  0  0  0  0
    4.7020   -0.1746   -0.9651 C   0  0  0  0  0  0  0  0  0  0  0  0
    3.4377   -0.7523   -0.8398 C   0  0  0  0  0  0  0  0  0  0  0  0
    0.3242    0.8329    0.7563 H   0  0  0  0  0  0  0  0  0  0  0  0
   -1.3746   -0.9343   -0.3410 H   0  0  0  0  0  0  0  0  0  0  0  0
   -1.8899   -1.5650    2.5718 H   0  0  0  0  0  0  0  0  0  0  0  0
   -0.5050   -2.3739    1.8696 H   0  0  0  0  0  0  0  0  0  0  0  0
   -0.0617   -3.0825   -0.7841 H   0  0  0  0  0  0  0  0  0  0  0  0
   -2.6592   -5.6814   -0.6931 H   0  0  0  0  0  0  0  0  0  0  0  0
   -3.2314    0.0983    1.0096 H   0  0  0  0  0  0  0  0  0  0  0  0
   -2.0477    0.7849    2.1108 H   0  0  0  0  0  0  0  0  0  0  0  0
   -2.7937    0.6715   -1.6083 H   0  0  0  0  0  0  0  0  0  0  0  0
   -2.5829    2.6480   -3.0687 H   0  0  0  0  0  0  0  0  0  0  0  0
   -1.7850    4.8062   -2.1445 H   0  0  0  0  0  0  0  0  0  0  0  0
   -1.2102    4.9877    0.2616 H   0  0  0  0  0  0  0  0  0  0  0  0
   -1.4161    3.0282    1.7405 H   0  0  0  0  0  0  0  0  0  0  0  0
    2.2802    1.0905    1.7937 H   0  0  0  0  0  0  0  0  0  0  0  0
    4.5113    2.1049    1.5532 H   0  0  0  0  0  0  0  0  0  0  0  0
    6.0691    1.3057   -0.2054 H   0  0  0  0  0  0  0  0  0  0  0  0
    5.3911   -0.5348   -1.7256 H   0  0  0  0  0  0  0  0  0  0  0  0
    3.1520   -1.5626   -1.5064 H   0  0  0  0  0  0  0  0  0  0  0  0
  1  2  2  0
  2  3  1  0
  3  4  1  0
  4  5  1  0
  5  6  1  0
  6  7  1  0
  7  8  2  0
  7  9  1  0
  7 10  1  0
  4 11  1  0
 11 12  1  0
 12 13  2  0
 13 14  1  0
 14 15  2  0
 15 16  1  0
 16 17  2  0
  2 18  1  0
 18 19  2  0
 19 20  1  0
 20 21  2  0
 21 22  1  0
 22 23  2  0
 17 12  1  0
 23 18  1  0
  3 24  1  0
  4 25  1  6
  5 26  1  0
  5 27  1  0
  9 28  1  0
 10 29  1  0
 11 30  1  0
 11 31  1  0
 13 32  1  0
 14 33  1  0
 15 34  1  0
 16 35  1  0
 17 36  1  0
 19 37  1  0
 20 38  1  0
 21 39  1  0
 22 40  1  0
 23 41  1  0
M  END
$$$$
