
     RDKit          3D

348359  0  0  0  0  0  0  0  0999 V2000
    4.9794   -0.8895   -3.8140 C   0  0  0  0  0  0  0  0  0  0  0  0
    5.4537   -1.2183   -2.4087 C   0  0  2  0  0  0  0  0  0  0  0  0
    6.8590   -1.6432   -2.3926 N   0  0  0  0  0  0  0  0  0  0  0  0
    7.8898   -0.7391   -2.2642 C   0  0  0  0  0  0  0  0  0  0  0  0
    7.6907    0.4725   -2.3250 O   0  0  0  0  0  0  0  0  0  0  0  0
    9.3202   -1.3125   -2.0316 C   0  0  2  0  0  0  0  0  0  0  0  0
    9.4302   -2.8304   -1.8020 C   0  0  0  0  0  0  0  0  0  0  0  0
   10.8810   -3.2823   -1.5520 C   0  0  0  0  0  0  0  0  0  0  0  0
   11.0372   -4.8011   -1.5915 C   0  0  0  0  0  0  0  0  0  0  0  0
   10.8760   -5.2942   -2.9478 N   0  0  0  0  0  0  0  0  0  0  0  0
   11.8400   -5.2984   -3.8910 C   0  0  0  0  0  0  0  0  0  0  0  0
   12.9996   -4.7603   -3.8685 N   0  0  0  0  0  0  0  0  0  0  0  0
   11.4446   -5.9623   -4.9925 N   0  0  0  0  0  0  0  0  0  0  0  0
    9.9668   -0.5435   -0.9691 N   0  0  0  0  0  0  0  0  0  0  0  0
    9.5112   -0.5181    0.3341 C   0  0  0  0  0  0  0  0  0  0  0  0
    8.4609   -1.0609    0.6619 O   0  0  0  0  0  0  0  0  0  0  0  0
   10.4831    0.1804    1.3318 C   0  0  2  0  0  0  0  0  0  0  0  0
    9.9308    0.2162    2.7703 C   0  0  0  0  0  0  0  0  0  0  0  0
   10.4753   -0.9241    3.5989 C   0  0  0  0  0  0  0  0  0  0  0  0
   11.6400   -0.7523    4.3518 C   0  0  0  0  0  0  0  0  0  0  0  0
   12.1896   -1.8250    5.0580 C   0  0  0  0  0  0  0  0  0  0  0  0
   11.5897   -3.0904    5.0141 C   0  0  0  0  0  0  0  0  0  0  0  0
   12.1406   -4.1865    5.6968 C   0  0  0  0  0  0  0  0  0  0  0  0
   11.5325   -5.4406    5.6367 C   0  0  0  0  0  0  0  0  0  0  0  0
   10.3678   -5.6167    4.8963 C   0  0  0  0  0  0  0  0  0  0  0  0
    9.8030   -4.5336    4.2182 C   0  0  0  0  0  0  0  0  0  0  0  0
   10.4058   -3.2695    4.2644 C   0  0  0  0  0  0  0  0  0  0  0  0
    9.8567   -2.1784    3.5697 C   0  0  0  0  0  0  0  0  0  0  0  0
   10.8484    1.5283    0.8835 N   0  0  0  0  0  0  0  0  0  0  0  0
   11.8546    1.7561   -0.0286 C   0  0  0  0  0  0  0  0  0  0  0  0
   12.3839    0.8270   -0.6349 O   0  0  0  0  0  0  0  0  0  0  0  0
   12.3225    3.2273   -0.1284 C   0  0  1  0  0  0  0  0  0  0  0  0
   13.3147    3.4422   -1.2779 C   0  0  0  0  0  0  0  0  0  0  0  0
   12.6264    3.4254   -2.6378 C   0  0  0  0  0  0  0  0  0  0  0  0
   11.4587    4.4105   -2.6662 C   0  0  0  0  0  0  0  0  0  0  0  0
   10.4947    4.1918   -1.5011 C   0  0  0  0  0  0  0  0  0  0  0  0
   11.1980    4.1948   -0.2164 N   0  0  0  0  0  0  0  0  0  0  0  0
   10.9575    5.0296    0.8657 C   0  0  0  0  0  0  0  0  0  0  0  0
   11.6516    4.9247    1.8922 O   0  0  0  0  0  0  0  0  0  0  0  0
    9.9379    6.1976    0.8224 C   0  0  1  0  0  0  0  0  0  0  0  0
   10.3910    7.3468   -0.1141 C   0  0  2  0  0  0  0  0  0  0  0  0
   11.7094    7.9870    0.3034 C   0  0  0  0  0  0  0  0  0  0  0  0
    9.3975    8.3832   -0.1585 O   0  0  0  0  0  0  0  0  0  0  0  0
    8.5513    5.8132    0.5381 N   0  0  0  0  0  0  0  0  0  0  0  0
    7.4981    6.2964    1.3008 C   0  0  0  0  0  0  0  0  0  0  0  0
    7.6408    6.6817    2.4559 O   0  0  0  0  0  0  0  0  0  0  0  0
    6.1335    6.2752    0.5609 C   0  0  2  0  0  0  0  0  0  0  0  0
    5.0705    7.0949    1.3089 C   0  0  0  0  0  0  0  0  0  0  0  0
    5.2400    8.5875    1.1296 C   0  0  0  0  0  0  0  0  0  0  0  0
    5.8835    9.3577    2.1095 C   0  0  0  0  0  0  0  0  0  0  0  0
    6.0494   10.7350    1.9300 C   0  0  0  0  0  0  0  0  0  0  0  0
    5.5711   11.3357    0.7740 C   0  0  0  0  0  0  0  0  0  0  0  0
    5.7252   12.6569    0.6063 F   0  0  0  0  0  0  0  0  0  0  0  0
    4.9303   10.5923   -0.2092 C   0  0  0  0  0  0  0  0  0  0  0  0
    4.7671    9.2147   -0.0328 C   0  0  0  0  0  0  0  0  0  0  0  0
    5.6948    4.8860    0.3925 N   0  0  0  0  0  0  0  0  0  0  0  0
    6.2155    4.0650   -0.5787 C   0  0  0  0  0  0  0  0  0  0  0  0
    7.1422    4.4347   -1.3060 O   0  0  0  0  0  0  0  0  0  0  0  0
    5.7246    2.6025   -0.5600 C   0  0  1  0  0  0  0  0  0  0  0  0
    6.6856    1.7424    0.2859 C   0  0  0  0  0  0  0  0  0  0  0  0
    6.5322    1.8402    1.7873 C   0  0  0  0  0  0  0  0  0  0  0  0
    7.1932    2.8339    2.5169 C   0  0  0  0  0  0  0  0  0  0  0  0
    7.0433    2.9157    3.9019 C   0  0  0  0  0  0  0  0  0  0  0  0
    6.2385    1.9948    4.5730 C   0  0  0  0  0  0  0  0  0  0  0  0
    5.5917    0.9888    3.8613 C   0  0  0  0  0  0  0  0  0  0  0  0
    5.7388    0.9098    2.4775 C   0  0  0  0  0  0  0  0  0  0  0  0
    4.3271    2.4566   -0.1370 N   0  0  0  0  0  0  0  0  0  0  0  0
    3.2890    2.7494   -0.9927 C   0  0  0  0  0  0  0  0  0  0  0  0
    3.4126    3.2952   -2.0770 O   0  0  0  0  0  0  0  0  0  0  0  0
    1.9478    2.3524   -0.5070 C   0  0  0  0  0  0  0  0  0  0  0  0
    0.9163    3.2970   -0.4937 C   0  0  0  0  0  0  0  0  0  0  0  0
   -0.3389    2.9337    0.0033 C   0  0  0  0  0  0  0  0  0  0  0  0
   -0.5489    1.6309    0.4723 C   0  0  0  0  0  0  0  0  0  0  0  0
    0.4845    0.6728    0.4446 C   0  0  0  0  0  0  0  0  0  0  0  0
    1.7352    1.0438   -0.0552 C   0  0  0  0  0  0  0  0  0  0  0  0
    0.1832   -0.6708    1.0225 C   0  0  0  0  0  0  0  0  0  0  0  0
   -0.9523   -0.9078    1.4333 O   0  0  0  0  0  0  0  0  0  0  0  0
    1.2050   -1.5938    1.1049 N   0  0  0  0  0  0  0  0  0  0  0  0
    1.0442   -2.8176    1.8770 C   0  0  0  0  0  0  0  0  0  0  0  0
    1.2364   -4.1197    1.0933 C   0  0  2  0  0  0  0  0  0  0  0  0
    2.3930   -4.1230    0.1942 N   0  0  0  0  0  0  0  0  0  0  0  0
    3.6693   -4.2602    0.6732 C   0  0  0  0  0  0  0  0  0  0  0  0
    3.9226   -4.2156    1.8809 O   0  0  0  0  0  0  0  0  0  0  0  0
    4.7854   -4.3890   -0.3778 C   0  0  1  0  0  0  0  0  0  0  0  0
    4.4084   -5.3738   -1.5043 C   0  0  0  0  0  0  0  0  0  0  0  0
    5.5521   -5.6724   -2.4484 C   0  0  0  0  0  0  0  0  0  0  0  0
    6.6138   -6.4882   -2.0452 C   0  0  0  0  0  0  0  0  0  0  0  0
    7.6404   -6.7987   -2.9324 C   0  0  0  0  0  0  0  0  0  0  0  0
    7.6296   -6.2751   -4.2267 C   0  0  0  0  0  0  0  0  0  0  0  0
    6.5902   -5.4453   -4.6330 C   0  0  0  0  0  0  0  0  0  0  0  0
    5.5533   -5.1463   -3.7523 C   0  0  0  0  0  0  0  0  0  0  0  0
    5.2589   -3.0864   -0.8428 N   0  0  0  0  0  0  0  0  0  0  0  0
    4.5783   -2.3149   -1.7589 C   0  0  0  0  0  0  0  0  0  0  0  0
    3.3743   -2.4525   -1.9454 O   0  0  0  0  0  0  0  0  0  0  0  0
   -0.0033   -4.5256    0.2831 C   0  0  0  0  0  0  0  0  0  0  0  0
   -0.7451   -3.7378   -0.2971 O   0  0  0  0  0  0  0  0  0  0  0  0
   -0.1709   -5.8921    0.1688 N   0  0  0  0  0  0  0  0  0  0  0  0
   -1.2345   -6.4819   -0.6441 C   0  0  1  0  0  0  0  0  0  0  0  0
   -0.8392   -7.8966   -1.0978 C   0  0  0  0  0  0  0  0  0  0  0  0
    0.4296   -7.9158   -1.9644 C   0  0  0  0  0  0  0  0  0  0  0  0
    0.7546   -9.3250   -2.4594 C   0  0  0  0  0  0  0  0  0  0  0  0
   -0.2559   -9.7854   -3.3984 N   0  0  0  0  0  0  0  0  0  0  0  0
   -0.1938   -9.4845   -4.7172 C   0  0  0  0  0  0  0  0  0  0  0  0
    0.6812   -8.7257   -5.2607 N   0  0  0  0  0  0  0  0  0  0  0  0
   -1.1959  -10.0649   -5.4000 N   0  0  0  0  0  0  0  0  0  0  0  0
   -2.5708   -6.5193    0.1482 C   0  0  0  0  0  0  0  0  0  0  0  0
   -3.1682   -7.5588    0.4126 O   0  0  0  0  0  0  0  0  0  0  0  0
   -3.0406   -5.2780    0.5249 N   0  0  0  0  0  0  0  0  0  0  0  0
   -4.4412   -5.0757    0.9023 C   0  0  1  0  0  0  0  0  0  0  0  0
   -4.5046   -4.2535    2.2015 C   0  0  0  0  0  0  0  0  0  0  0  0
   -5.8323   -4.3325    2.9662 C   0  0  0  0  0  0  0  0  0  0  0  0
   -6.1515   -5.7367    3.4816 C   0  0  0  0  0  0  0  0  0  0  0  0
   -7.5908   -5.9399    3.6491 N   0  0  0  0  0  0  0  0  0  0  0  0
   -8.3761   -6.2210    2.5817 C   0  0  0  0  0  0  0  0  0  0  0  0
   -8.1599   -5.8502    1.3732 N   0  0  0  0  0  0  0  0  0  0  0  0
   -9.4370   -6.9745    2.9349 N   0  0  0  0  0  0  0  0  0  0  0  0
   -5.1101   -4.3634   -0.2970 C   0  0  0  0  0  0  0  0  0  0  0  0
   -4.4860   -4.0194   -1.2970 O   0  0  0  0  0  0  0  0  0  0  0  0
   -6.4707   -4.1555   -0.1789 N   0  0  0  0  0  0  0  0  0  0  0  0
   -7.1805   -3.4299   -1.2240 C   0  0  1  0  0  0  0  0  0  0  0  0
   -7.5754   -4.3377   -2.4048 C   0  0  0  0  0  0  0  0  0  0  0  0
   -8.5080   -5.4873   -2.0167 C   0  0  0  0  0  0  0  0  0  0  0  0
   -9.0452   -6.2124   -3.2464 C   0  0  0  0  0  0  0  0  0  0  0  0
   -9.9623   -7.2701   -2.8469 N   0  0  0  0  0  0  0  0  0  0  0  0
  -11.2650   -7.0795   -2.5322 C   0  0  0  0  0  0  0  0  0  0  0  0
  -11.8845   -5.9871   -2.2961 N   0  0  0  0  0  0  0  0  0  0  0  0
  -11.9271   -8.2446   -2.4590 N   0  0  0  0  0  0  0  0  0  0  0  0
   -8.4064   -2.6160   -0.7512 C   0  0  0  0  0  0  0  0  0  0  0  0
   -8.9072   -1.7451   -1.4669 O   0  0  0  0  0  0  0  0  0  0  0  0
   -8.9757   -2.9796    0.4574 N   0  0  0  0  0  0  0  0  0  0  0  0
  -10.4188   -2.7723    0.6284 C   0  0  1  0  0  0  0  0  0  0  0  0
  -10.9392   -3.4762    1.8900 C   0  0  0  0  0  0  0  0  0  0  0  0
  -10.4349   -2.8548    3.2002 C   0  0  0  0  0  0  0  0  0  0  0  0
  -10.9209   -3.5825    4.4530 C   0  0  0  0  0  0  0  0  0  0  0  0
  -12.3688   -3.5844    4.5396 N   0  0  0  0  0  0  0  0  0  0  0  0
  -13.1754   -4.5640    4.0793 C   0  0  0  0  0  0  0  0  0  0  0  0
  -12.9095   -5.8160    4.0492 N   0  0  0  0  0  0  0  0  0  0  0  0
  -14.3610   -4.1094    3.6409 N   0  0  0  0  0  0  0  0  0  0  0  0
  -10.9146   -1.3073    0.6599 C   0  0  0  0  0  0  0  0  0  0  0  0
  -12.1068   -1.0328    0.5306 O   0  0  0  0  0  0  0  0  0  0  0  0
   -9.9756   -0.3632    1.0091 N   0  0  0  0  0  0  0  0  0  0  0  0
  -10.3338    1.0506    1.0997 C   0  0  1  0  0  0  0  0  0  0  0  0
  -10.9068    1.4067    2.4812 C   0  0  0  0  0  0  0  0  0  0  0  0
  -11.9885    2.4602    2.3922 C   0  0  0  0  0  0  0  0  0  0  0  0
  -13.2831    2.1028    2.0000 C   0  0  0  0  0  0  0  0  0  0  0  0
  -14.2735    3.0739    1.8608 C   0  0  0  0  0  0  0  0  0  0  0  0
  -13.9935    4.4264    2.1042 C   0  0  0  0  0  0  0  0  0  0  0  0
  -14.9737    5.4172    1.9588 C   0  0  0  0  0  0  0  0  0  0  0  0
  -14.6746    6.7603    2.1987 C   0  0  0  0  0  0  0  0  0  0  0  0
  -13.3902    7.1266    2.5869 C   0  0  0  0  0  0  0  0  0  0  0  0
  -12.4027    6.1502    2.7397 C   0  0  0  0  0  0  0  0  0  0  0  0
  -12.6891    4.7970    2.5057 C   0  0  0  0  0  0  0  0  0  0  0  0
  -11.7025    3.8068    2.6486 C   0  0  0  0  0  0  0  0  0  0  0  0
   -9.1274    1.9322    0.7306 C   0  0  0  0  0  0  0  0  0  0  0  0
   -8.9346    3.0475    1.2043 O   0  0  0  0  0  0  0  0  0  0  0  0
   -8.3605    1.4268   -0.3118 N   0  0  0  0  0  0  0  0  0  0  0  0
   -7.4909    2.3272   -1.0833 C   0  0  1  0  0  0  0  0  0  0  0  0
   -8.2952    3.4569   -1.7721 C   0  0  0  0  0  0  0  0  0  0  0  0
   -9.4792    2.9443   -2.5646 C   0  0  0  0  0  0  0  0  0  0  0  0
   -9.2837    2.2809   -3.7833 C   0  0  0  0  0  0  0  0  0  0  0  0
  -10.3706    1.7560   -4.4830 C   0  0  0  0  0  0  0  0  0  0  0  0
  -11.6615    1.8895   -3.9720 C   0  0  0  0  0  0  0  0  0  0  0  0
  -11.8674    2.5535   -2.7637 C   0  0  0  0  0  0  0  0  0  0  0  0
  -10.7837    3.0880   -2.0674 C   0  0  0  0  0  0  0  0  0  0  0  0
   -6.3218    2.8630   -0.2008 C   0  0  0  0  0  0  0  0  0  0  0  0
   -6.0286    2.3966    0.8969 O   0  0  0  0  0  0  0  0  0  0  0  0
   -5.5483    3.8550   -0.7686 N   0  0  0  0  0  0  0  0  0  0  0  0
   -4.8697    4.8577    0.0695 C   0  0  2  0  0  0  0  0  0  0  0  0
   -4.5250    6.0444   -0.8569 C   0  0  0  0  0  0  0  0  0  0  0  0
   -4.8573    6.0325   -2.0472 O   0  0  0  0  0  0  0  0  0  0  0  0
   -3.9754    7.1522   -0.2586 N   0  0  0  0  0  0  0  0  0  0  0  0
   -3.6472    8.3626   -1.0166 C   0  0  1  0  0  0  0  0  0  0  0  0
   -4.6868    9.4695   -0.7738 C   0  0  0  0  0  0  0  0  0  0  0  0
   -6.0829    9.1133   -1.2962 C   0  0  0  0  0  0  0  0  0  0  0  0
   -7.1328   10.1958   -1.0127 C   0  0  0  0  0  0  0  0  0  0  0  0
   -6.8939   11.5560   -1.6733 C   0  0  0  0  0  0  0  0  0  0  0  0
   -6.8585   11.4867   -3.1287 N   0  0  0  0  0  0  0  0  0  0  0  0
   -2.2703    8.8801   -0.5877 C   0  0  0  0  0  0  0  0  0  0  0  0
   -1.6294    9.7701   -1.1238 O   0  0  0  0  0  0  0  0  0  0  0  0
   -1.8116    8.2932    0.5440 O   0  0  0  0  0  0  0  0  0  0  0  0
   -3.7045    4.3312    0.9099 C   0  0  0  0  0  0  0  0  0  0  0  0
   -2.6918    3.5712    0.1959 N   0  0  0  0  0  0  0  0  0  0  0  0
   -1.3773    3.9863    0.1840 C   0  0  0  0  0  0  0  0  0  0  0  0
   -1.0371    5.1500    0.3696 O   0  0  0  0  0  0  0  0  0  0  0  0
    3.9312   -0.5752   -3.8116 H   0  0  0  0  0  0  0  0  0  0  0  0
    5.0634   -1.7593   -4.4734 H   0  0  0  0  0  0  0  0  0  0  0  0
    5.5761   -0.0821   -4.2508 H   0  0  0  0  0  0  0  0  0  0  0  0
    5.3523   -0.3286   -1.7793 H   0  0  0  0  0  0  0  0  0  0  0  0
    7.0595   -2.5880   -2.7003 H   0  0  0  0  0  0  0  0  0  0  0  0
    9.8727   -1.0721   -2.9489 H   0  0  0  0  0  0  0  0  0  0  0  0
    8.8069   -3.1451   -0.9562 H   0  0  0  0  0  0  0  0  0  0  0  0
    9.0370   -3.3483   -2.6904 H   0  0  0  0  0  0  0  0  0  0  0  0
   11.2008   -2.9308   -0.5665 H   0  0  0  0  0  0  0  0  0  0  0  0
   11.5454   -2.8170   -2.2896 H   0  0  0  0  0  0  0  0  0  0  0  0
   12.0137   -5.0989   -1.1917 H   0  0  0  0  0  0  0  0  0  0  0  0
   10.2768   -5.2639   -0.9530 H   0  0  0  0  0  0  0  0  0  0  0  0
   10.3234   -6.1417   -2.9995 H   0  0  0  0  0  0  0  0  0  0  0  0
   13.1606   -4.3046   -2.9725 H   0  0  0  0  0  0  0  0  0  0  0  0
   12.1622   -5.8649   -5.7037 H   0  0  0  0  0  0  0  0  0  0  0  0
   10.5767   -5.5835   -5.3494 H   0  0  0  0  0  0  0  0  0  0  0  0
   10.9271   -0.2334   -1.1251 H   0  0  0  0  0  0  0  0  0  0  0  0
   11.4059   -0.4162    1.3118 H   0  0  0  0  0  0  0  0  0  0  0  0
   10.2108    1.1573    3.2647 H   0  0  0  0  0  0  0  0  0  0  0  0
    8.8360    0.1915    2.7910 H   0  0  0  0  0  0  0  0  0  0  0  0
   12.1354    0.2160    4.3912 H   0  0  0  0  0  0  0  0  0  0  0  0
   13.0964   -1.6624    5.6353 H   0  0  0  0  0  0  0  0  0  0  0  0
   13.0495   -4.0706    6.2811 H   0  0  0  0  0  0  0  0  0  0  0  0
   11.9728   -6.2822    6.1665 H   0  0  0  0  0  0  0  0  0  0  0  0
    9.8926   -6.5930    4.8506 H   0  0  0  0  0  0  0  0  0  0  0  0
    8.8874   -4.6873    3.6500 H   0  0  0  0  0  0  0  0  0  0  0  0
    8.9435   -2.3117    2.9937 H   0  0  0  0  0  0  0  0  0  0  0  0
   10.3528    2.3325    1.2563 H   0  0  0  0  0  0  0  0  0  0  0  0
   12.8846    3.3936    0.7998 H   0  0  0  0  0  0  0  0  0  0  0  0
   13.8087    4.4111   -1.1412 H   0  0  0  0  0  0  0  0  0  0  0  0
   14.1043    2.6816   -1.2553 H   0  0  0  0  0  0  0  0  0  0  0  0
   13.3467    3.6809   -3.4236 H   0  0  0  0  0  0  0  0  0  0  0  0
   12.2594    2.4150   -2.8602 H   0  0  0  0  0  0  0  0  0  0  0  0
   10.9221    4.3194   -3.6165 H   0  0  0  0  0  0  0  0  0  0  0  0
   11.8604    5.4314   -2.6220 H   0  0  0  0  0  0  0  0  0  0  0  0
    9.9865    3.2252   -1.6004 H   0  0  0  0  0  0  0  0  0  0  0  0
    9.7367    4.9659   -1.5470 H   0  0  0  0  0  0  0  0  0  0  0  0
    9.9317    6.6122    1.8396 H   0  0  0  0  0  0  0  0  0  0  0  0
   10.4925    6.9889   -1.1419 H   0  0  0  0  0  0  0  0  0  0  0  0
   11.6288    8.4444    1.2951 H   0  0  0  0  0  0  0  0  0  0  0  0
   12.5300    7.2630    0.3084 H   0  0  0  0  0  0  0  0  0  0  0  0
   11.9694    8.7937   -0.3920 H   0  0  0  0  0  0  0  0  0  0  0  0
    9.1552    8.6041    0.7626 H   0  0  0  0  0  0  0  0  0  0  0  0
    8.3010    5.5408   -0.4086 H   0  0  0  0  0  0  0  0  0  0  0  0
    6.2932    6.6978   -0.4407 H   0  0  0  0  0  0  0  0  0  0  0  0
    4.0706    6.8247    0.9408 H   0  0  0  0  0  0  0  0  0  0  0  0
    5.0621    6.8407    2.3770 H   0  0  0  0  0  0  0  0  0  0  0  0
    6.2595    8.8951    3.0188 H   0  0  0  0  0  0  0  0  0  0  0  0
    6.5479   11.3372    2.6828 H   0  0  0  0  0  0  0  0  0  0  0  0
    4.5624   11.0855   -1.1035 H   0  0  0  0  0  0  0  0  0  0  0  0
    4.2666    8.6401   -0.8106 H   0  0  0  0  0  0  0  0  0  0  0  0
    5.0713    4.4779    1.0814 H   0  0  0  0  0  0  0  0  0  0  0  0
    5.7740    2.2667   -1.6045 H   0  0  0  0  0  0  0  0  0  0  0  0
    7.7259    1.9731    0.0258 H   0  0  0  0  0  0  0  0  0  0  0  0
    6.5351    0.6922    0.0136 H   0  0  0  0  0  0  0  0  0  0  0  0
    7.8467    3.5469    2.0212 H   0  0  0  0  0  0  0  0  0  0  0  0
    7.5600    3.6946    4.4596 H   0  0  0  0  0  0  0  0  0  0  0  0
    6.1332    2.0523    5.6538 H   0  0  0  0  0  0  0  0  0  0  0  0
    4.9815    0.2581    4.3885 H   0  0  0  0  0  0  0  0  0  0  0  0
    5.2503    0.0989    1.9429 H   0  0  0  0  0  0  0  0  0  0  0  0
    4.1256    2.1602    0.8103 H   0  0  0  0  0  0  0  0  0  0  0  0
    1.0981    4.3103   -0.8407 H   0  0  0  0  0  0  0  0  0  0  0  0
   -1.5046    1.3563    0.9163 H   0  0  0  0  0  0  0  0  0  0  0  0
    2.5530    0.3313   -0.1160 H   0  0  0  0  0  0  0  0  0  0  0  0
    2.1373   -1.3948    0.7768 H   0  0  0  0  0  0  0  0  0  0  0  0
    1.8050   -2.7549    2.6660 H   0  0  0  0  0  0  0  0  0  0  0  0
    0.0714   -2.8278    2.3846 H   0  0  0  0  0  0  0  0  0  0  0  0
    1.4048   -4.9099    1.8378 H   0  0  0  0  0  0  0  0  0  0  0  0
    2.2831   -3.6848   -0.7239 H   0  0  0  0  0  0  0  0  0  0  0  0
    5.6400   -4.8193    0.1626 H   0  0  0  0  0  0  0  0  0  0  0  0
    3.5536   -5.0078   -2.0871 H   0  0  0  0  0  0  0  0  0  0  0  0
    4.0705   -6.3219   -1.0662 H   0  0  0  0  0  0  0  0  0  0  0  0
    6.6337   -6.9135   -1.0433 H   0  0  0  0  0  0  0  0  0  0  0  0
    8.4404   -7.4643   -2.6251 H   0  0  0  0  0  0  0  0  0  0  0  0
    8.4211   -6.5341   -4.9234 H   0  0  0  0  0  0  0  0  0  0  0  0
    6.5722   -5.0506   -5.6484 H   0  0  0  0  0  0  0  0  0  0  0  0
    4.7282   -4.5262   -4.0961 H   0  0  0  0  0  0  0  0  0  0  0  0
    6.2404   -2.8636   -0.6945 H   0  0  0  0  0  0  0  0  0  0  0  0
    0.3213   -6.4999    0.8112 H   0  0  0  0  0  0  0  0  0  0  0  0
   -1.4019   -5.8521   -1.5276 H   0  0  0  0  0  0  0  0  0  0  0  0
   -1.6778   -8.3280   -1.6584 H   0  0  0  0  0  0  0  0  0  0  0  0
   -0.6824   -8.5387   -0.2204 H   0  0  0  0  0  0  0  0  0  0  0  0
    0.3091   -7.2277   -2.8073 H   0  0  0  0  0  0  0  0  0  0  0  0
    1.2797   -7.5598   -1.3716 H   0  0  0  0  0  0  0  0  0  0  0  0
    1.7510   -9.3477   -2.9184 H   0  0  0  0  0  0  0  0  0  0  0  0
    0.7898  -10.0151   -1.6092 H   0  0  0  0  0  0  0  0  0  0  0  0
   -0.5681  -10.7329   -3.2258 H   0  0  0  0  0  0  0  0  0  0  0  0
    0.5111   -8.6776   -6.2648 H   0  0  0  0  0  0  0  0  0  0  0  0
   -2.0525  -10.1003   -4.8614 H   0  0  0  0  0  0  0  0  0  0  0  0
   -1.3617   -9.6650   -6.3151 H   0  0  0  0  0  0  0  0  0  0  0  0
   -2.5889   -4.4777    0.0695 H   0  0  0  0  0  0  0  0  0  0  0  0
   -4.9227   -6.0522    1.0067 H   0  0  0  0  0  0  0  0  0  0  0  0
   -3.7080   -4.5910    2.8780 H   0  0  0  0  0  0  0  0  0  0  0  0
   -4.2975   -3.1991    1.9768 H   0  0  0  0  0  0  0  0  0  0  0  0
   -5.7681   -3.6618    3.8324 H   0  0  0  0  0  0  0  0  0  0  0  0
   -6.6449   -3.9213    2.3646 H   0  0  0  0  0  0  0  0  0  0  0  0
   -5.7558   -6.5297    2.8410 H   0  0  0  0  0  0  0  0  0  0  0  0
   -5.6673   -5.8663    4.4570 H   0  0  0  0  0  0  0  0  0  0  0  0
   -7.7525   -6.6039    4.4000 H   0  0  0  0  0  0  0  0  0  0  0  0
   -8.8977   -6.2792    0.7962 H   0  0  0  0  0  0  0  0  0  0  0  0
   -9.8347   -6.7671    3.8403 H   0  0  0  0  0  0  0  0  0  0  0  0
  -10.1676   -7.0991    2.2451 H   0  0  0  0  0  0  0  0  0  0  0  0
   -6.9828   -4.8068    0.4220 H   0  0  0  0  0  0  0  0  0  0  0  0
   -6.4852   -2.6693   -1.6065 H   0  0  0  0  0  0  0  0  0  0  0  0
   -6.6728   -4.7621   -2.8626 H   0  0  0  0  0  0  0  0  0  0  0  0
   -8.0624   -3.7267   -3.1771 H   0  0  0  0  0  0  0  0  0  0  0  0
   -9.3362   -5.1101   -1.4120 H   0  0  0  0  0  0  0  0  0  0  0  0
   -7.9655   -6.2047   -1.3886 H   0  0  0  0  0  0  0  0  0  0  0  0
   -9.5434   -5.5206   -3.9357 H   0  0  0  0  0  0  0  0  0  0  0  0
   -8.2085   -6.6660   -3.7910 H   0  0  0  0  0  0  0  0  0  0  0  0
   -9.8487   -8.1093   -3.4078 H   0  0  0  0  0  0  0  0  0  0  0  0
  -11.2619   -5.1915   -2.4160 H   0  0  0  0  0  0  0  0  0  0  0  0
  -12.8566   -8.0801   -2.0869 H   0  0  0  0  0  0  0  0  0  0  0  0
  -11.4452   -8.9433   -1.9059 H   0  0  0  0  0  0  0  0  0  0  0  0
   -8.6119   -3.8443    0.8558 H   0  0  0  0  0  0  0  0  0  0  0  0
  -10.8929   -3.2300   -0.2500 H   0  0  0  0  0  0  0  0  0  0  0  0
  -12.0338   -3.4299    1.8628 H   0  0  0  0  0  0  0  0  0  0  0  0
  -10.6730   -4.5374    1.8587 H   0  0  0  0  0  0  0  0  0  0  0  0
   -9.3384   -2.8440    3.2067 H   0  0  0  0  0  0  0  0  0  0  0  0
  -10.7633   -1.8112    3.2649 H   0  0  0  0  0  0  0  0  0  0  0  0
  -10.5070   -4.5947    4.4852 H   0  0  0  0  0  0  0  0  0  0  0  0
  -10.5313   -3.0587    5.3326 H   0  0  0  0  0  0  0  0  0  0  0  0
  -12.7926   -2.6653    4.5728 H   0  0  0  0  0  0  0  0  0  0  0  0
  -12.0166   -5.9587    4.5155 H   0  0  0  0  0  0  0  0  0  0  0  0
  -14.8788   -4.8516    3.1791 H   0  0  0  0  0  0  0  0  0  0  0  0
  -14.3185   -3.2941    3.0476 H   0  0  0  0  0  0  0  0  0  0  0  0
   -8.9977   -0.6370    1.0537 H   0  0  0  0  0  0  0  0  0  0  0  0
  -11.0870    1.2316    0.3222 H   0  0  0  0  0  0  0  0  0  0  0  0
  -11.3531    0.5221    2.9545 H   0  0  0  0  0  0  0  0  0  0  0  0
  -10.1158    1.7322    3.1696 H   0  0  0  0  0  0  0  0  0  0  0  0
  -13.5224    1.0626    1.7823 H   0  0  0  0  0  0  0  0  0  0  0  0
  -15.2691    2.7660    1.5481 H   0  0  0  0  0  0  0  0  0  0  0  0
  -15.9826    5.1514    1.6520 H   0  0  0  0  0  0  0  0  0  0  0  0
  -15.4435    7.5161    2.0786 H   0  0  0  0  0  0  0  0  0  0  0  0
  -13.1526    8.1710    2.7747 H   0  0  0  0  0  0  0  0  0  0  0  0
  -11.4032    6.4554    3.0457 H   0  0  0  0  0  0  0  0  0  0  0  0
  -10.6937    4.0908    2.9423 H   0  0  0  0  0  0  0  0  0  0  0  0
   -8.7968    0.6687   -0.8369 H   0  0  0  0  0  0  0  0  0  0  0  0
   -7.0265    1.6936   -1.8485 H   0  0  0  0  0  0  0  0  0  0  0  0
   -7.6583    4.0208   -2.4634 H   0  0  0  0  0  0  0  0  0  0  0  0
   -8.6423    4.1938   -1.0367 H   0  0  0  0  0  0  0  0  0  0  0  0
   -8.2822    2.1622   -4.1918 H   0  0  0  0  0  0  0  0  0  0  0  0
  -10.2111    1.2362   -5.4254 H   0  0  0  0  0  0  0  0  0  0  0  0
  -12.5043    1.4645   -4.5086 H   0  0  0  0  0  0  0  0  0  0  0  0
  -12.8721    2.6508   -2.3588 H   0  0  0  0  0  0  0  0  0  0  0  0
  -10.9642    3.5986   -1.1225 H   0  0  0  0  0  0  0  0  0  0  0  0
   -5.7712    4.1998   -1.6974 H   0  0  0  0  0  0  0  0  0  0  0  0
   -5.6363    5.2366    0.7604 H   0  0  0  0  0  0  0  0  0  0  0  0
   -3.4397    7.0400    0.5977 H   0  0  0  0  0  0  0  0  0  0  0  0
   -3.5798    8.1195   -2.0820 H   0  0  0  0  0  0  0  0  0  0  0  0
   -4.7530    9.6824    0.3020 H   0  0  0  0  0  0  0  0  0  0  0  0
   -4.3433   10.3927   -1.2556 H   0  0  0  0  0  0  0  0  0  0  0  0
   -6.0399    8.8980   -2.3700 H   0  0  0  0  0  0  0  0  0  0  0  0
   -6.4328    8.1943   -0.8105 H   0  0  0  0  0  0  0  0  0  0  0  0
   -7.2058   10.3440    0.0724 H   0  0  0  0  0  0  0  0  0  0  0  0
   -8.1146    9.8161   -1.3305 H   0  0  0  0  0  0  0  0  0  0  0  0
   -7.7006   12.2367   -1.3810 H   0  0  0  0  0  0  0  0  0  0  0  0
   -5.9634   12.0039   -1.3093 H   0  0  0  0  0  0  0  0  0  0  0  0
   -7.6879   11.0048   -3.4731 H   0  0  0  0  0  0  0  0  0  0  0  0
   -6.0600   10.9305   -3.4329 H   0  0  0  0  0  0  0  0  0  0  0  0
   -0.9105    8.6607    0.6538 H   0  0  0  0  0  0  0  0  0  0  0  0
   -4.0800    3.6484    1.6815 H   0  0  0  0  0  0  0  0  0  0  0  0
   -3.2250    5.1494    1.4569 H   0  0  0  0  0  0  0  0  0  0  0  0
   -2.9443    2.6319   -0.0735 H   0  0  0  0  0  0  0  0  0  0  0  0
  1  2  1  0
  2  3  1  0
  3  4  1  0
  4  5  2  0
  4  6  1  0
  6  7  1  0
  7  8  1  0
  8  9  1  0
  9 10  1  0
 10 11  1  0
 11 12  2  3
 11 13  1  0
  6 14  1  0
 14 15  1  0
 15 16  2  0
 15 17  1  0
 17 18  1  0
 18 19  1  0
 19 20  1  0
 20 21  2  0
 21 22  1  0
 22 23  2  0
 23 24  1  0
 24 25  2  0
 25 26  1  0
 26 27  2  0
 27 28  1  0
 17 29  1  0
 29 30  1  0
 30 31  2  0
 30 32  1  0
 32 33  1  0
 33 34  1  0
 34 35  1  0
 35 36  1  0
 36 37  1  0
 37 38  1  0
 38 39  2  0
 38 40  1  0
 40 41  1  0
 41 42  1  0
 41 43  1  0
 40 44  1  0
 44 45  1  0
 45 46  2  0
 45 47  1  0
 47 48  1  0
 48 49  1  0
 49 50  1  0
 50 51  2  0
 51 52  1  0
 52 53  1  0
 52 54  2  0
 54 55  1  0
 47 56  1  0
 56 57  1  0
 57 58  2  0
 57 59  1  0
 59 60  1  0
 60 61  1  0
 61 62  2  0
 62 63  1  0
 63 64  2  0
 64 65  1  0
 65 66  2  0
 59 67  1  0
 67 68  1  0
 68 69  2  0
 68 70  1  0
 70 71  1  0
 71 72  2  0
 72 73  1  0
 73 74  2  0
 74 75  1  0
 74 76  1  0
 76 77  2  0
 76 78  1  0
 78 79  1  0
 79 80  1  0
 80 81  1  0
 81 82  1  0
 82 83  2  0
 82 84  1  0
 84 85  1  0
 85 86  1  0
 86 87  2  0
 87 88  1  0
 88 89  2  0
 89 90  1  0
 90 91  2  0
 84 92  1  0
 92 93  1  0
 93 94  2  0
 80 95  1  0
 95 96  2  0
 95 97  1  0
 97 98  1  0
 98 99  1  0
 99100  1  0
100101  1  0
101102  1  0
102103  1  0
103104  2  3
103105  1  0
 98106  1  0
106107  2  0
106108  1  0
108109  1  0
109110  1  0
110111  1  0
111112  1  0
112113  1  0
113114  1  0
114115  2  3
114116  1  0
109117  1  0
117118  2  0
117119  1  0
119120  1  0
120121  1  0
121122  1  0
122123  1  0
123124  1  0
124125  1  0
125126  2  3
125127  1  0
120128  1  0
128129  2  0
128130  1  0
130131  1  0
131132  1  0
132133  1  0
133134  1  0
134135  1  0
135136  1  0
136137  2  3
136138  1  0
131139  1  0
139140  2  0
139141  1  0
141142  1  0
142143  1  0
143144  1  0
144145  1  0
145146  2  0
146147  1  0
147148  2  0
148149  1  0
149150  2  0
150151  1  0
151152  2  0
152153  1  0
142154  1  0
154155  2  0
154156  1  0
156157  1  0
157158  1  0
158159  1  0
159160  2  0
160161  1  0
161162  2  0
162163  1  0
163164  2  0
157165  1  0
165166  2  0
165167  1  0
167168  1  0
168169  1  0
169170  2  0
169171  1  0
171172  1  0
172173  1  0
173174  1  0
174175  1  0
175176  1  0
176177  1  0
172178  1  0
178179  2  0
178180  1  0
168181  1  0
181182  1  0
182183  1  0
183184  2  0
 93  2  1  0
153144  2  0
164159  1  0
 28 19  2  0
 37 32  1  0
 55 49  2  0
 66 61  1  0
 75 70  2  0
 91 86  1  0
152147  1  0
 27 22  1  0
183 72  1  0
  1185  1  0
  1186  1  0
  1187  1  0
  2188  1  1
  3189  1  0
  6190  1  6
  7191  1  0
  7192  1  0
  8193  1  0
  8194  1  0
  9195  1  0
  9196  1  0
 10197  1  0
 12198  1  0
 13199  1  0
 13200  1  0
 14201  1  0
 17202  1  1
 18203  1  0
 18204  1  0
 20205  1  0
 21206  1  0
 23207  1  0
 24208  1  0
 25209  1  0
 26210  1  0
 28211  1  0
 29212  1  0
 32213  1  1
 33214  1  0
 33215  1  0
 34216  1  0
 34217  1  0
 35218  1  0
 35219  1  0
 36220  1  0
 36221  1  0
 40222  1  1
 41223  1  6
 42224  1  0
 42225  1  0
 42226  1  0
 43227  1  0
 44228  1  0
 47229  1  6
 48230  1  0
 48231  1  0
 50232  1  0
 51233  1  0
 54234  1  0
 55235  1  0
 56236  1  0
 59237  1  6
 60238  1  0
 60239  1  0
 62240  1  0
 63241  1  0
 64242  1  0
 65243  1  0
 66244  1  0
 67245  1  0
 71246  1  0
 73247  1  0
 75248  1  0
 78249  1  0
 79250  1  0
 79251  1  0
 80252  1  1
 81253  1  0
 84254  1  1
 85255  1  0
 85256  1  0
 87257  1  0
 88258  1  0
 89259  1  0
 90260  1  0
 91261  1  0
 92262  1  0
 97263  1  0
 98264  1  6
 99265  1  0
 99266  1  0
100267  1  0
100268  1  0
101269  1  0
101270  1  0
102271  1  0
104272  1  0
105273  1  0
105274  1  0
108275  1  0
109276  1  1
110277  1  0
110278  1  0
111279  1  0
111280  1  0
112281  1  0
112282  1  0
113283  1  0
115284  1  0
116285  1  0
116286  1  0
119287  1  0
120288  1  6
121289  1  0
121290  1  0
122291  1  0
122292  1  0
123293  1  0
123294  1  0
124295  1  0
126296  1  0
127297  1  0
127298  1  0
130299  1  0
131300  1  6
132301  1  0
132302  1  0
133303  1  0
133304  1  0
134305  1  0
134306  1  0
135307  1  0
137308  1  0
138309  1  0
138310  1  0
141311  1  0
142312  1  6
143313  1  0
143314  1  0
145315  1  0
146316  1  0
148317  1  0
149318  1  0
150319  1  0
151320  1  0
153321  1  0
156322  1  0
157323  1  6
158324  1  0
158325  1  0
160326  1  0
161327  1  0
162328  1  0
163329  1  0
164330  1  0
167331  1  0
168332  1  1
171333  1  0
172334  1  6
173335  1  0
173336  1  0
174337  1  0
174338  1  0
175339  1  0
175340  1  0
176341  1  0
176342  1  0
177343  1  0
177344  1  0
180345  1  0
181346  1  0
181347  1  0
182348  1  0
M  END
$$$$
