
     RDKit          3D

181187  0  0  0  0  0  0  0  0999 V2000
    5.0700   -3.2274    1.4560 C   0  0  0  0  0  0  0  0  0  0  0  0
    5.3248   -3.0548   -0.0172 C   0  0  0  0  0  0  0  0  0  0  0  0
    5.0549   -3.9307   -0.8353 O   0  0  0  0  0  0  0  0  0  0  0  0
    5.8253   -1.8287   -0.3696 N   0  0  0  0  0  0  0  0  0  0  0  0
    6.1972   -1.4310   -1.7314 C   0  0  1  0  0  0  0  0  0  0  0  0
    7.2527   -2.3341   -2.3878 C   0  0  0  0  0  0  0  0  0  0  0  0
    8.5900   -2.3228   -1.6381 C   0  0  0  0  0  0  0  0  0  0  0  0
    9.6123   -3.2368   -2.3230 C   0  0  0  0  0  0  0  0  0  0  0  0
   10.9513   -3.2570   -1.5899 C   0  0  0  0  0  0  0  0  0  0  0  0
   11.6602   -2.0014   -1.7368 N   0  0  0  0  0  0  0  0  0  0  0  0
   12.4272   -1.4778   -0.7167 C   0  0  0  0  0  0  0  0  0  0  0  0
   12.4825   -1.9583    0.4090 O   0  0  0  0  0  0  0  0  0  0  0  0
   13.1923   -0.2385   -1.1430 C   0  0  0  0  0  0  0  0  0  0  0  0
   13.9475    0.4040    0.0200 C   0  0  0  0  0  0  0  0  0  0  0  0
   14.6916    1.6625   -0.4285 C   0  0  0  0  0  0  0  0  0  0  0  0
   15.5650    2.2827    0.6733 C   0  0  0  0  0  0  0  0  0  0  0  0
   14.8172    2.7404    1.9412 C   0  0  2  0  0  0  0  0  0  0  0  0
   13.6210    4.0664    1.5848 S   0  0  0  0  0  0  0  0  0  0  0  0
   14.8691    5.3732    1.6775 C   0  0  0  0  0  0  0  0  0  0  0  0
   15.8692    4.8996    2.7247 C   0  0  2  0  0  0  0  0  0  0  0  0
   17.2543    5.0103    2.3166 N   0  0  0  0  0  0  0  0  0  0  0  0
   17.9593    3.8809    2.6901 C   0  0  0  0  0  0  0  0  0  0  0  0
   19.1700    3.7715    2.6994 O   0  0  0  0  0  0  0  0  0  0  0  0
   17.0562    2.9161    3.0823 N   0  0  0  0  0  0  0  0  0  0  0  0
   15.6984    3.3960    3.0203 C   0  0  2  0  0  0  0  0  0  0  0  0
    4.9566   -1.2631   -2.6394 C   0  0  0  0  0  0  0  0  0  0  0  0
    4.6142   -0.1702   -3.0836 O   0  0  0  0  0  0  0  0  0  0  0  0
    4.2822   -2.4261   -2.9221 N   0  0  0  0  0  0  0  0  0  0  0  0
    3.1295   -2.4958   -3.8149 C   0  0  1  0  0  0  0  0  0  0  0  0
    3.5691   -2.7654   -5.2457 C   0  0  0  0  0  0  0  0  0  0  0  0
    2.1447   -3.5698   -3.3042 C   0  0  0  0  0  0  0  0  0  0  0  0
    1.4259   -4.2376   -4.0385 O   0  0  0  0  0  0  0  0  0  0  0  0
    2.0494   -3.6046   -1.9291 N   0  0  0  0  0  0  0  0  0  0  0  0
    1.2522   -4.5963   -1.2121 C   0  0  1  0  0  0  0  0  0  0  0  0
    2.0423   -5.8785   -0.9890 C   0  0  0  0  0  0  0  0  0  0  0  0
    0.7801   -3.9822    0.1224 C   0  0  0  0  0  0  0  0  0  0  0  0
    0.5937   -4.6317    1.1495 O   0  0  0  0  0  0  0  0  0  0  0  0
    0.4645   -2.6385    0.0201 N   0  0  0  0  0  0  0  0  0  0  0  0
   -0.2466   -1.9503    1.0966 C   0  0  1  0  0  0  0  0  0  0  0  0
    0.0240   -0.4394    1.0584 C   0  0  0  0  0  0  0  0  0  0  0  0
    1.4720   -0.0734    1.2859 C   0  0  0  0  0  0  0  0  0  0  0  0
    2.2964    0.4365    0.3021 C   0  0  0  0  0  0  0  0  0  0  0  0
    3.8575    0.8056    0.8678 S   0  0  0  0  0  0  0  0  0  0  0  0
    3.4912    0.2632    2.4559 C   0  0  0  0  0  0  0  0  0  0  0  0
    4.3638    0.2501    3.5630 C   0  0  0  0  0  0  0  0  0  0  0  0
    3.8993   -0.2300    4.7886 C   0  0  0  0  0  0  0  0  0  0  0  0
    2.5947   -0.6825    4.9159 C   0  0  0  0  0  0  0  0  0  0  0  0
    1.7319   -0.6624    3.8160 C   0  0  0  0  0  0  0  0  0  0  0  0
    2.1695   -0.1872    2.5530 C   0  0  0  0  0  0  0  0  0  0  0  0
   -1.7579   -2.2238    0.9450 C   0  0  0  0  0  0  0  0  0  0  0  0
   -2.2455   -2.7421   -0.0599 O   0  0  0  0  0  0  0  0  0  0  0  0
   -2.5341   -1.8411    2.0199 N   0  0  0  0  0  0  0  0  0  0  0  0
   -3.9938   -1.9753    1.9589 C   0  0  2  0  0  0  0  0  0  0  0  0
   -4.5212   -0.8125    1.0769 C   0  0  0  0  0  0  0  0  0  0  0  0
   -4.0817    0.3362    1.2442 O   0  0  0  0  0  0  0  0  0  0  0  0
   -5.4737   -1.0916    0.1014 N   0  0  0  0  0  0  0  0  0  0  0  0
   -5.9286   -2.4417   -0.2418 C   0  0  0  0  0  0  0  0  0  0  0  0
   -7.2161   -2.4628   -1.0551 C   0  0  0  0  0  0  0  0  0  0  0  0
   -7.1154   -1.6233   -2.3231 C   0  0  0  0  0  0  0  0  0  0  0  0
   -6.1489   -0.4475   -2.1932 C   0  0  0  0  0  0  0  0  0  0  0  0
   -5.9437    0.0204   -0.7484 C   0  0  1  0  0  0  0  0  0  0  0  0
   -7.2128    0.6742   -0.1409 C   0  0  0  0  0  0  0  0  0  0  0  0
   -7.8189    0.2061    0.8235 O   0  0  0  0  0  0  0  0  0  0  0  0
   -7.6154    1.8432   -0.7647 N   0  0  0  0  0  0  0  0  0  0  0  0
   -8.9717    2.3601   -0.5382 C   0  0  1  0  0  0  0  0  0  0  0  0
   -8.9832    3.8948   -0.5873 C   0  0  0  0  0  0  0  0  0  0  0  0
  -10.1450    4.5004    0.1679 C   0  0  0  0  0  0  0  0  0  0  0  0
  -10.2103    4.4045    1.5621 C   0  0  0  0  0  0  0  0  0  0  0  0
  -11.3090    4.9145    2.2573 C   0  0  0  0  0  0  0  0  0  0  0  0
  -12.3660    5.5329    1.5750 C   0  0  0  0  0  0  0  0  0  0  0  0
  -13.4867    6.0357    2.2552 C   0  0  0  0  0  0  0  0  0  0  0  0
  -14.5310    6.6443    1.5574 C   0  0  0  0  0  0  0  0  0  0  0  0
  -14.4684    6.7577    0.1717 C   0  0  0  0  0  0  0  0  0  0  0  0
  -13.3611    6.2657   -0.5189 C   0  0  0  0  0  0  0  0  0  0  0  0
  -12.3016    5.6514    0.1679 C   0  0  0  0  0  0  0  0  0  0  0  0
  -11.1849    5.1438   -0.5163 C   0  0  0  0  0  0  0  0  0  0  0  0
   -9.8452    1.7519   -1.6610 C   0  0  0  0  0  0  0  0  0  0  0  0
   -9.3481    1.2791   -2.6838 O   0  0  0  0  0  0  0  0  0  0  0  0
  -11.2043    1.7653   -1.4318 N   0  0  0  0  0  0  0  0  0  0  0  0
  -12.1306    1.3083   -2.4659 C   0  0  1  0  0  0  0  0  0  0  0  0
  -13.4174    0.7555   -1.8283 C   0  0  0  0  0  0  0  0  0  0  0  0
  -13.2890   -0.7278   -1.4833 C   0  0  0  0  0  0  0  0  0  0  0  0
  -13.2292   -1.5917   -2.7291 C   0  0  0  0  0  0  0  0  0  0  0  0
  -13.0324   -2.9177   -2.4838 N   0  0  0  0  0  0  0  0  0  0  0  0
  -13.3534   -1.1626   -3.8730 O   0  0  0  0  0  0  0  0  0  0  0  0
  -12.4636    2.4446   -3.4518 C   0  0  0  0  0  0  0  0  0  0  0  0
  -13.1373    2.0495   -4.5767 N   0  0  0  0  0  0  0  0  0  0  0  0
  -12.1908    3.6265   -3.2628 O   0  0  0  0  0  0  0  0  0  0  0  0
   -4.6052   -1.9240    3.3795 C   0  0  2  0  0  0  0  0  0  0  0  0
   -6.0231   -2.4798    3.4222 C   0  0  0  0  0  0  0  0  0  0  0  0
   -4.6723   -0.5889    3.8561 O   0  0  0  0  0  0  0  0  0  0  0  0
   -3.5754   -0.0197    4.8594 P   0  0  0  0  0  0  0  0  0  0  0  0
   -3.5417   -0.5963    6.2289 O   0  0  0  0  0  0  0  0  0  0  0  0
   -3.8379    1.5482    4.7543 O   0  0  0  0  0  0  0  0  0  0  0  0
   -2.1739   -0.1232    4.0894 O   0  0  0  0  0  0  0  0  0  0  0  0
    5.3970   -4.2262    1.7588 H   0  0  0  0  0  0  0  0  0  0  0  0
    5.6241   -2.4945    2.0481 H   0  0  0  0  0  0  0  0  0  0  0  0
    4.0003   -3.1152    1.6515 H   0  0  0  0  0  0  0  0  0  0  0  0
    5.9114   -1.1196    0.3490 H   0  0  0  0  0  0  0  0  0  0  0  0
    6.6277   -0.4256   -1.6251 H   0  0  0  0  0  0  0  0  0  0  0  0
    7.4189   -1.9942   -3.4180 H   0  0  0  0  0  0  0  0  0  0  0  0
    6.8959   -3.3672   -2.4662 H   0  0  0  0  0  0  0  0  0  0  0  0
    8.9736   -1.2967   -1.5937 H   0  0  0  0  0  0  0  0  0  0  0  0
    8.4423   -2.6588   -0.6043 H   0  0  0  0  0  0  0  0  0  0  0  0
    9.2149   -4.2588   -2.3535 H   0  0  0  0  0  0  0  0  0  0  0  0
    9.7579   -2.9157   -3.3615 H   0  0  0  0  0  0  0  0  0  0  0  0
   10.8098   -3.4966   -0.5311 H   0  0  0  0  0  0  0  0  0  0  0  0
   11.5955   -4.0298   -2.0226 H   0  0  0  0  0  0  0  0  0  0  0  0
   11.8276   -1.6632   -2.6751 H   0  0  0  0  0  0  0  0  0  0  0  0
   13.8980   -0.5303   -1.9301 H   0  0  0  0  0  0  0  0  0  0  0  0
   12.4800    0.4797   -1.5671 H   0  0  0  0  0  0  0  0  0  0  0  0
   13.2340    0.6489    0.8146 H   0  0  0  0  0  0  0  0  0  0  0  0
   14.6581   -0.3156    0.4419 H   0  0  0  0  0  0  0  0  0  0  0  0
   15.3466    1.4058   -1.2705 H   0  0  0  0  0  0  0  0  0  0  0  0
   13.9778    2.3999   -0.8125 H   0  0  0  0  0  0  0  0  0  0  0  0
   16.1225    3.1193    0.2343 H   0  0  0  0  0  0  0  0  0  0  0  0
   16.3165    1.5346    0.9578 H   0  0  0  0  0  0  0  0  0  0  0  0
   14.2941    1.8868    2.3834 H   0  0  0  0  0  0  0  0  0  0  0  0
   15.3296    5.5064    0.6925 H   0  0  0  0  0  0  0  0  0  0  0  0
   14.4020    6.3200    1.9643 H   0  0  0  0  0  0  0  0  0  0  0  0
   15.7677    5.4816    3.6500 H   0  0  0  0  0  0  0  0  0  0  0  0
   17.7744    5.8762    2.2698 H   0  0  0  0  0  0  0  0  0  0  0  0
   17.3724    2.0291    3.4534 H   0  0  0  0  0  0  0  0  0  0  0  0
   15.2453    3.2541    4.0090 H   0  0  0  0  0  0  0  0  0  0  0  0
    4.6176   -3.2900   -2.4886 H   0  0  0  0  0  0  0  0  0  0  0  0
    2.6013   -1.5354   -3.7803 H   0  0  0  0  0  0  0  0  0  0  0  0
    4.0974   -3.7233   -5.3218 H   0  0  0  0  0  0  0  0  0  0  0  0
    2.7075   -2.8030   -5.9225 H   0  0  0  0  0  0  0  0  0  0  0  0
    4.2476   -1.9822   -5.6045 H   0  0  0  0  0  0  0  0  0  0  0  0
    2.7809   -3.1314   -1.4065 H   0  0  0  0  0  0  0  0  0  0  0  0
    0.3574   -4.8201   -1.8057 H   0  0  0  0  0  0  0  0  0  0  0  0
    2.4292   -6.2738   -1.9338 H   0  0  0  0  0  0  0  0  0  0  0  0
    2.8946   -5.7057   -0.3226 H   0  0  0  0  0  0  0  0  0  0  0  0
    1.4145   -6.6486   -0.5298 H   0  0  0  0  0  0  0  0  0  0  0  0
    0.2736   -2.3298   -0.9289 H   0  0  0  0  0  0  0  0  0  0  0  0
    0.0710   -2.3830    2.0518 H   0  0  0  0  0  0  0  0  0  0  0  0
   -0.3057   -0.0346    0.0909 H   0  0  0  0  0  0  0  0  0  0  0  0
   -0.5754    0.0826    1.8120 H   0  0  0  0  0  0  0  0  0  0  0  0
    2.0513    0.6300   -0.7347 H   0  0  0  0  0  0  0  0  0  0  0  0
    5.3841    0.6129    3.4701 H   0  0  0  0  0  0  0  0  0  0  0  0
    4.5658   -0.2471    5.6487 H   0  0  0  0  0  0  0  0  0  0  0  0
    2.2426   -1.0569    5.8738 H   0  0  0  0  0  0  0  0  0  0  0  0
    0.7167   -1.0292    3.9411 H   0  0  0  0  0  0  0  0  0  0  0  0
   -2.1828   -1.1159    2.6461 H   0  0  0  0  0  0  0  0  0  0  0  0
   -4.1806   -2.9526    1.5088 H   0  0  0  0  0  0  0  0  0  0  0  0
   -5.1187   -2.9246   -0.8003 H   0  0  0  0  0  0  0  0  0  0  0  0
   -6.0902   -3.0181    0.6715 H   0  0  0  0  0  0  0  0  0  0  0  0
   -8.0399   -2.0839   -0.4390 H   0  0  0  0  0  0  0  0  0  0  0  0
   -7.4822   -3.4941   -1.3127 H   0  0  0  0  0  0  0  0  0  0  0  0
   -8.1142   -1.2645   -2.5924 H   0  0  0  0  0  0  0  0  0  0  0  0
   -6.7866   -2.2555   -3.1565 H   0  0  0  0  0  0  0  0  0  0  0  0
   -5.1738   -0.7631   -2.5878 H   0  0  0  0  0  0  0  0  0  0  0  0
   -6.4834    0.3690   -2.8415 H   0  0  0  0  0  0  0  0  0  0  0  0
   -5.1776    0.8063   -0.7575 H   0  0  0  0  0  0  0  0  0  0  0  0
   -7.2657    1.9952   -1.7024 H   0  0  0  0  0  0  0  0  0  0  0  0
   -9.3419    1.9830    0.4217 H   0  0  0  0  0  0  0  0  0  0  0  0
   -8.0619    4.2931   -0.1423 H   0  0  0  0  0  0  0  0  0  0  0  0
   -8.9869    4.2440   -1.6281 H   0  0  0  0  0  0  0  0  0  0  0  0
   -9.4076    3.9251    2.1212 H   0  0  0  0  0  0  0  0  0  0  0  0
  -11.3349    4.8196    3.3410 H   0  0  0  0  0  0  0  0  0  0  0  0
  -13.5550    5.9556    3.3385 H   0  0  0  0  0  0  0  0  0  0  0  0
  -15.3941    7.0284    2.0961 H   0  0  0  0  0  0  0  0  0  0  0  0
  -15.2810    7.2297   -0.3742 H   0  0  0  0  0  0  0  0  0  0  0  0
  -13.3295    6.3565   -1.6025 H   0  0  0  0  0  0  0  0  0  0  0  0
  -11.1392    5.2375   -1.6005 H   0  0  0  0  0  0  0  0  0  0  0  0
  -11.5563    2.4776   -0.8005 H   0  0  0  0  0  0  0  0  0  0  0  0
  -11.6200    0.5373   -3.0556 H   0  0  0  0  0  0  0  0  0  0  0  0
  -13.6509    1.3130   -0.9126 H   0  0  0  0  0  0  0  0  0  0  0  0
  -14.2789    0.8904   -2.4942 H   0  0  0  0  0  0  0  0  0  0  0  0
  -12.3944   -0.9064   -0.8750 H   0  0  0  0  0  0  0  0  0  0  0  0
  -14.1648   -1.0410   -0.9048 H   0  0  0  0  0  0  0  0  0  0  0  0
  -12.9188   -3.5308   -3.2812 H   0  0  0  0  0  0  0  0  0  0  0  0
  -12.7513   -3.2609   -1.5741 H   0  0  0  0  0  0  0  0  0  0  0  0
  -13.1923    1.0662   -4.8392 H   0  0  0  0  0  0  0  0  0  0  0  0
  -13.3002    2.7443   -5.2925 H   0  0  0  0  0  0  0  0  0  0  0  0
   -3.9887   -2.5199    4.0643 H   0  0  0  0  0  0  0  0  0  0  0  0
   -6.7094   -1.8681    2.8264 H   0  0  0  0  0  0  0  0  0  0  0  0
   -6.0591   -3.5112    3.0624 H   0  0  0  0  0  0  0  0  0  0  0  0
   -6.4049   -2.4595    4.4487 H   0  0  0  0  0  0  0  0  0  0  0  0
   -4.0024    1.8008    3.8226 H   0  0  0  0  0  0  0  0  0  0  0  0
   -1.4881    0.2353    4.6896 H   0  0  0  0  0  0  0  0  0  0  0  0
  1  2  1  0
  2  3  2  0
  2  4  1  0
  4  5  1  0
  5  6  1  0
  6  7  1  0
  7  8  1  0
  8  9  1  0
  9 10  1  0
 10 11  1  0
 11 12  2  0
 11 13  1  0
 13 14  1  0
 14 15  1  0
 15 16  1  0
 16 17  1  0
 17 18  1  0
 18 19  1  0
 19 20  1  0
 20 21  1  0
 21 22  1  0
 22 23  2  0
 22 24  1  0
 24 25  1  0
  5 26  1  0
 26 27  2  0
 26 28  1  0
 28 29  1  0
 29 30  1  0
 29 31  1  0
 31 32  2  0
 31 33  1  0
 33 34  1  0
 34 35  1  0
 34 36  1  0
 36 37  2  0
 36 38  1  0
 38 39  1  0
 39 40  1  0
 40 41  1  0
 41 42  2  0
 42 43  1  0
 43 44  1  0
 44 45  2  0
 45 46  1  0
 46 47  2  0
 47 48  1  0
 48 49  2  0
 39 50  1  0
 50 51  2  0
 50 52  1  0
 52 53  1  0
 53 54  1  0
 54 55  2  0
 54 56  1  0
 56 57  1  0
 57 58  1  0
 58 59  1  0
 59 60  1  0
 60 61  1  0
 61 62  1  0
 62 63  2  0
 62 64  1  0
 64 65  1  0
 65 66  1  0
 66 67  1  0
 67 68  1  0
 68 69  2  0
 69 70  1  0
 70 71  2  0
 71 72  1  0
 72 73  2  0
 73 74  1  0
 74 75  2  0
 75 76  1  0
 65 77  1  0
 77 78  2  0
 77 79  1  0
 79 80  1  0
 80 81  1  0
 81 82  1  0
 82 83  1  0
 83 84  1  0
 83 85  2  0
 80 86  1  0
 86 87  1  0
 86 88  2  0
 53 89  1  0
 89 90  1  0
 89 91  1  0
 91 92  1  0
 92 93  2  0
 92 94  1  0
 92 95  1  0
 25 17  1  0
 49 41  1  0
 61 56  1  0
 76 67  2  0
 25 20  1  0
 49 44  1  0
 75 70  1  0
  1 96  1  0
  1 97  1  0
  1 98  1  0
  4 99  1  0
  5100  1  1
  6101  1  0
  6102  1  0
  7103  1  0
  7104  1  0
  8105  1  0
  8106  1  0
  9107  1  0
  9108  1  0
 10109  1  0
 13110  1  0
 13111  1  0
 14112  1  0
 14113  1  0
 15114  1  0
 15115  1  0
 16116  1  0
 16117  1  0
 17118  1  1
 19119  1  0
 19120  1  0
 20121  1  1
 21122  1  0
 24123  1  0
 25124  1  1
 28125  1  0
 29126  1  6
 30127  1  0
 30128  1  0
 30129  1  0
 33130  1  0
 34131  1  6
 35132  1  0
 35133  1  0
 35134  1  0
 38135  1  0
 39136  1  1
 40137  1  0
 40138  1  0
 42139  1  0
 45140  1  0
 46141  1  0
 47142  1  0
 48143  1  0
 52144  1  0
 53145  1  6
 57146  1  0
 57147  1  0
 58148  1  0
 58149  1  0
 59150  1  0
 59151  1  0
 60152  1  0
 60153  1  0
 61154  1  6
 64155  1  0
 65156  1  1
 66157  1  0
 66158  1  0
 68159  1  0
 69160  1  0
 71161  1  0
 72162  1  0
 73163  1  0
 74164  1  0
 76165  1  0
 79166  1  0
 80167  1  6
 81168  1  0
 81169  1  0
 82170  1  0
 82171  1  0
 84172  1  0
 84173  1  0
 87174  1  0
 87175  1  0
 89176  1  1
 90177  1  0
 90178  1  0
 90179  1  0
 94180  1  0
 95181  1  0
M  END
$$$$
