
     RDKit          3D

 44 46  0  0  0  0  0  0  0  0999 V2000
    1.6385   -0.4644   -1.7578 O   0  0  0  0  0  0  0  0  0  0  0  0
    1.3395   -0.6103   -0.5729 C   0  0  0  0  0  0  0  0  0  0  0  0
    0.0163   -0.6383   -0.1759 N   0  0  0  0  0  0  0  0  0  0  0  0
   -1.0728   -0.3187   -1.1008 C   0  0  1  0  0  0  0  0  0  0  0  0
   -2.3917   -0.9462   -0.6190 C   0  0  0  0  0  0  0  0  0  0  0  0
   -2.8830   -0.2728    0.5316 O   0  0  0  0  0  0  0  0  0  0  0  0
   -2.9069   -1.0669    1.9131 P   0  0  0  0  0  0  0  0  0  0  0  0
   -3.7167   -2.3095    1.9783 O   0  0  0  0  0  0  0  0  0  0  0  0
   -3.3217    0.0592    2.9629 O   0  0  0  0  0  0  0  0  0  0  0  0
   -1.3601   -1.2678    2.2613 O   0  0  0  0  0  0  0  0  0  0  0  0
   -1.1680    1.2115   -1.2919 C   0  0  0  0  0  0  0  0  0  0  0  0
   -2.1625    1.6319   -2.3458 C   0  0  0  0  0  0  0  0  0  0  0  0
   -1.8904    1.4227   -3.7064 C   0  0  0  0  0  0  0  0  0  0  0  0
   -2.8168    1.7983   -4.6821 C   0  0  0  0  0  0  0  0  0  0  0  0
   -4.0217    2.3885   -4.3064 C   0  0  0  0  0  0  0  0  0  0  0  0
   -4.2894    2.5990   -2.9594 C   0  0  0  0  0  0  0  0  0  0  0  0
   -5.4483    3.1617   -2.5964 F   0  0  0  0  0  0  0  0  0  0  0  0
   -3.3751    2.2282   -1.9795 C   0  0  0  0  0  0  0  0  0  0  0  0
    2.3450   -0.7497    0.4738 C   0  0  0  0  0  0  0  0  0  0  0  0
    3.7133   -0.7951    0.2887 C   0  0  0  0  0  0  0  0  0  0  0  0
    4.4553   -0.9165    1.5092 C   0  0  0  0  0  0  0  0  0  0  0  0
    5.8497   -0.9919    1.7362 C   0  0  0  0  0  0  0  0  0  0  0  0
    6.3488   -1.1033    3.0376 C   0  0  0  0  0  0  0  0  0  0  0  0
    5.4813   -1.1424    4.1204 C   0  0  0  0  0  0  0  0  0  0  0  0
    4.1003   -1.0707    3.9255 C   0  0  0  0  0  0  0  0  0  0  0  0
    3.6026   -0.9575    2.6127 C   0  0  0  0  0  0  0  0  0  0  0  0
    1.9547   -0.8516    2.1320 S   0  0  0  0  0  0  0  0  0  0  0  0
   -0.1891   -0.6839    0.8250 H   0  0  0  0  0  0  0  0  0  0  0  0
   -0.8182   -0.7854   -2.0610 H   0  0  0  0  0  0  0  0  0  0  0  0
   -2.2506   -2.0127   -0.4115 H   0  0  0  0  0  0  0  0  0  0  0  0
   -3.1572   -0.8716   -1.3938 H   0  0  0  0  0  0  0  0  0  0  0  0
   -4.2682    0.2814    2.8937 H   0  0  0  0  0  0  0  0  0  0  0  0
   -1.2572   -1.7544    3.1031 H   0  0  0  0  0  0  0  0  0  0  0  0
   -0.1873    1.6161   -1.5779 H   0  0  0  0  0  0  0  0  0  0  0  0
   -1.4033    1.6977   -0.3364 H   0  0  0  0  0  0  0  0  0  0  0  0
   -0.9505    0.9663   -4.0139 H   0  0  0  0  0  0  0  0  0  0  0  0
   -2.5955    1.6312   -5.7331 H   0  0  0  0  0  0  0  0  0  0  0  0
   -4.7517    2.6825   -5.0506 H   0  0  0  0  0  0  0  0  0  0  0  0
   -3.6212    2.4050   -0.9368 H   0  0  0  0  0  0  0  0  0  0  0  0
    4.1677   -0.7361   -0.6946 H   0  0  0  0  0  0  0  0  0  0  0  0
    6.5388   -0.9648    0.8947 H   0  0  0  0  0  0  0  0  0  0  0  0
    7.4222   -1.1618    3.1989 H   0  0  0  0  0  0  0  0  0  0  0  0
    5.8777   -1.2336    5.1307 H   0  0  0  0  0  0  0  0  0  0  0  0
    3.4238   -1.1035    4.7743 H   0  0  0  0  0  0  0  0  0  0  0  0
  1  2  2  0
  2  3  1  0
  3  4  1  0
  4  5  1  0
  5  6  1  0
  6  7  1  0
  7  8  2  0
  7  9  1  0
  7 10  1  0
  4 11  1  0
 11 12  1  0
 12 13  2  0
 13 14  1  0
 14 15  2  0
 15 16  1  0
 16 17  1  0
 16 18  2  0
  2 19  1  0
 19 20  2  0
 20 21  1  0
 21 22  2  0
 22 23  1  0
 23 24  2  0
 24 25  1  0
 25 26  2  0
 26 27  1  0
 18 12  1  0
 27 19  1  0
 26 21  1  0
  3 28  1  0
  4 29  1  6
  5 30  1  0
  5 31  1  0
  9 32  1  0
 10 33  1  0
 11 34  1  0
 11 35  1  0
 13 36  1  0
 14 37  1  0
 15 38  1  0
 18 39  1  0
 20 40  1  0
 22 41  1  0
 23 42  1  0
 24 43  1  0
 25 44  1  0
M  END
$$$$
