CHRNA7_encenicline__hybrid_B_face_seed5519_ex32__pose01
     RDKit          3D

 38 41  0  0  0  0  0  0  0  0999 V2000
  143.5710  139.3480   95.6920 O   0  0  0  0  0  0  0  0  0  0  0  0
  142.6270  139.7380   95.0930 C   0  0  0  0  0  0  0  0  0  0  0  0
  142.5300  139.4990   93.6660 N   0  0  0  0  0  0  0  0  0  0  0  0
  143.6180  138.7720   92.9740 C   0  0  1  0  0  0  0  0  0  0  0  0
  143.1890  138.4320   91.5320 C   0  0  0  0  0  0  0  0  0  0  0  0
  144.0700  138.9850   90.5990 N   0  0  0  0  0  0  0  0  0  0  0  0
  145.3510  138.5270   90.8190 C   0  0  0  0  0  0  0  0  0  0  0  0
  145.8330  138.8890   92.1930 C   0  0  0  0  0  0  0  0  0  0  0  0
  144.8150  139.6050   92.9090 C   0  0  0  0  0  0  0  0  0  0  0  0
  144.4910  140.8170   92.1610 C   0  0  0  0  0  0  0  0  0  0  0  0
  144.0530  140.3970   90.7060 C   0  0  0  0  0  0  0  0  0  0  0  0
  141.5150  140.4880   95.8350 C   0  0  0  0  0  0  0  0  0  0  0  0
  140.2310  140.0800   95.9580 C   0  0  0  0  0  0  0  0  0  0  0  0
  139.3000  140.8920   96.6880 C   0  0  0  0  0  0  0  0  0  0  0  0
  137.9740  140.6220   96.9050 C   0  0  0  0  0  0  0  0  0  0  0  0
  137.1900  141.5130   97.6380 C   0  0  0  0  0  0  0  0  0  0  0  0
  137.7600  142.6890   98.1540 C   0  0  0  0  0  0  0  0  0  0  0  0
  139.1120  142.9710   97.9380 C   0  0  0  0  0  0  0  0  0  0  0  0
  139.8300  144.4630   98.5980 Cl  0  0  0  0  0  0  0  0  0  0  0  0
  139.8870  142.0940   97.2160 C   0  0  0  0  0  0  0  0  0  0  0  0
  141.6220  142.0060   96.6800 S   0  0  0  0  0  0  0  0  0  0  0  0
  141.7470  139.8180   93.1620 H   0  0  0  0  0  0  0  0  0  0  0  0
  143.8297  137.8499   93.5351 H   0  0  0  0  0  0  0  0  0  0  0  0
  143.1765  137.3389   91.4097 H   0  0  0  0  0  0  0  0  0  0  0  0
  142.1879  138.8532   91.3580 H   0  0  0  0  0  0  0  0  0  0  0  0
  145.3630  137.4322   90.7123 H   0  0  0  0  0  0  0  0  0  0  0  0
  146.0185  138.9981   90.0825 H   0  0  0  0  0  0  0  0  0  0  0  0
  146.0841  137.9699   92.7427 H   0  0  0  0  0  0  0  0  0  0  0  0
  146.7222  139.5301   92.1014 H   0  0  0  0  0  0  0  0  0  0  0  0
  145.1638  139.8560   93.9216 H   0  0  0  0  0  0  0  0  0  0  0  0
  143.6680  141.3520   92.6576 H   0  0  0  0  0  0  0  0  0  0  0  0
  145.3667  141.4812   92.1168 H   0  0  0  0  0  0  0  0  0  0  0  0
  143.0367  140.7679   90.5072 H   0  0  0  0  0  0  0  0  0  0  0  0
  144.7500  140.8295   89.9731 H   0  0  0  0  0  0  0  0  0  0  0  0
  139.9035  139.1339   95.5023 H   0  0  0  0  0  0  0  0  0  0  0  0
  137.5274  139.7016   96.5007 H   0  0  0  0  0  0  0  0  0  0  0  0
  136.1259  141.2950   97.8120 H   0  0  0  0  0  0  0  0  0  0  0  0
  137.1396  143.3909   98.7305 H   0  0  0  0  0  0  0  0  0  0  0  0
  1  2  2  0
  2  3  1  0
  3  4  1  0
  4  5  1  0
  5  6  1  0
  6  7  1  0
  7  8  1  0
  8  9  1  0
  9 10  1  0
 10 11  1  0
  2 12  1  0
 12 13  2  0
 13 14  1  0
 14 15  2  0
 15 16  1  0
 16 17  2  0
 17 18  1  0
 18 19  1  0
 18 20  2  0
 20 21  1  0
  9  4  1  0
 21 12  1  0
 11  6  1  0
 20 14  1  0
  3 22  1  0
  4 23  1  1
  5 24  1  0
  5 25  1  0
  7 26  1  0
  7 27  1  0
  8 28  1  0
  8 29  1  0
  9 30  1  0
 10 31  1  0
 10 32  1  0
 11 33  1  0
 11 34  1  0
 13 35  1  0
 15 36  1  0
 16 37  1  0
 17 38  1  0
M  END
>  <meeko>  (1)
{"is_sidechain": false}

>  <source_group>  (1)
CHRFAM7A at B face

>  <source_system>  (1)
CHRNA7_encenicline

>  <source_run>  (1)
hybrid_B_face_seed5519_ex32

>  <source_seed>  (1)
5519

>  <vina_pose_rank>  (1)
1

>  <vina_affinity_kcal_mol>  (1)
-6.8789999999999996

>  <vina_rmsd_to_crystal_angstrom>  (1)
8.3819999999999997

$$$$
CHRNA7_encenicline__hybrid_B_face_seed5519_ex32__pose02
     RDKit          3D

 38 41  0  0  0  0  0  0  0  0999 V2000
  146.4260  144.6340   93.6450 O   0  0  0  0  0  0  0  0  0  0  0  0
  146.5700  143.6290   94.2540 C   0  0  0  0  0  0  0  0  0  0  0  0
  147.8610  143.3200   94.8370 N   0  0  0  0  0  0  0  0  0  0  0  0
  148.9870  144.2650   94.6590 C   0  0  1  0  0  0  0  0  0  0  0  0
  149.3770  144.8800   96.0180 C   0  0  0  0  0  0  0  0  0  0  0  0
  150.7150  144.6180   96.3260 N   0  0  0  0  0  0  0  0  0  0  0  0
  151.5400  145.1150   95.3400 C   0  0  0  0  0  0  0  0  0  0  0  0
  151.2340  144.4980   94.0080 C   0  0  0  0  0  0  0  0  0  0  0  0
  150.1500  143.5640   94.1250 C   0  0  0  0  0  0  0  0  0  0  0  0
  150.5370  142.5250   95.0760 C   0  0  0  0  0  0  0  0  0  0  0  0
  150.9130  143.2200   96.4400 C   0  0  0  0  0  0  0  0  0  0  0  0
  145.3880  142.6680   94.4230 C   0  0  0  0  0  0  0  0  0  0  0  0
  144.3270  142.8550   95.2420 C   0  0  0  0  0  0  0  0  0  0  0  0
  143.2910  141.8640   95.2920 C   0  0  0  0  0  0  0  0  0  0  0  0
  142.1580  141.9040   96.0620 C   0  0  0  0  0  0  0  0  0  0  0  0
  141.2370  140.8570   96.0040 C   0  0  0  0  0  0  0  0  0  0  0  0
  141.4710  139.7620   95.1550 C   0  0  0  0  0  0  0  0  0  0  0  0
  142.6250  139.7150   94.3670 C   0  0  0  0  0  0  0  0  0  0  0  0
  142.9150  138.3230   93.2910 Cl  0  0  0  0  0  0  0  0  0  0  0  0
  143.5340  140.7440   94.4220 C   0  0  0  0  0  0  0  0  0  0  0  0
  145.1210  141.1420   93.6300 S   0  0  0  0  0  0  0  0  0  0  0  0
  147.9890  142.4880   95.3480 H   0  0  0  0  0  0  0  0  0  0  0  0
  148.6694  145.0544   93.9618 H   0  0  0  0  0  0  0  0  0  0  0  0
  149.2250  145.9686   95.9760 H   0  0  0  0  0  0  0  0  0  0  0  0
  148.7454  144.4300   96.7981 H   0  0  0  0  0  0  0  0  0  0  0  0
  151.3993  146.2038   95.2708 H   0  0  0  0  0  0  0  0  0  0  0  0
  152.5799  144.8717   95.6035 H   0  0  0  0  0  0  0  0  0  0  0  0
  150.9547  145.2900   93.2975 H   0  0  0  0  0  0  0  0  0  0  0  0
  152.1266  143.9648   93.6488 H   0  0  0  0  0  0  0  0  0  0  0  0
  149.9163  143.1240   93.1443 H   0  0  0  0  0  0  0  0  0  0  0  0
  149.6979  141.8308   95.2308 H   0  0  0  0  0  0  0  0  0  0  0  0
  151.3964  141.9576   94.6895 H   0  0  0  0  0  0  0  0  0  0  0  0
  150.2739  142.8231   97.2425 H   0  0  0  0  0  0  0  0  0  0  0  0
  151.9675  143.0164   96.6777 H   0  0  0  0  0  0  0  0  0  0  0  0
  144.2595  143.7595   95.8643 H   0  0  0  0  0  0  0  0  0  0  0  0
  141.9745  142.7616   96.7260 H   0  0  0  0  0  0  0  0  0  0  0  0
  140.3281  140.8889   96.6228 H   0  0  0  0  0  0  0  0  0  0  0  0
  140.7432  138.9384   95.1102 H   0  0  0  0  0  0  0  0  0  0  0  0
  1  2  2  0
  2  3  1  0
  3  4  1  0
  4  5  1  0
  5  6  1  0
  6  7  1  0
  7  8  1  0
  8  9  1  0
  9 10  1  0
 10 11  1  0
  2 12  1  0
 12 13  2  0
 13 14  1  0
 14 15  2  0
 15 16  1  0
 16 17  2  0
 17 18  1  0
 18 19  1  0
 18 20  2  0
 20 21  1  0
  9  4  1  0
 21 12  1  0
 11  6  1  0
 20 14  1  0
  3 22  1  0
  4 23  1  6
  5 24  1  0
  5 25  1  0
  7 26  1  0
  7 27  1  0
  8 28  1  0
  8 29  1  0
  9 30  1  0
 10 31  1  0
 10 32  1  0
 11 33  1  0
 11 34  1  0
 13 35  1  0
 15 36  1  0
 16 37  1  0
 17 38  1  0
M  END
>  <meeko>  (2)
{"is_sidechain": false}

>  <source_group>  (2)
CHRFAM7A at B face

>  <source_system>  (2)
CHRNA7_encenicline

>  <source_run>  (2)
hybrid_B_face_seed5519_ex32

>  <source_seed>  (2)
5519

>  <vina_pose_rank>  (2)
2

>  <vina_affinity_kcal_mol>  (2)
-6.0389999999999997

>  <vina_rmsd_to_crystal_angstrom>  (2)
9.8865999999999996

$$$$
CHRNA7_encenicline__hybrid_B_face_seed5519_ex32__pose03
     RDKit          3D

 38 41  0  0  0  0  0  0  0  0999 V2000
  146.7960  144.1940   93.4470 O   0  0  0  0  0  0  0  0  0  0  0  0
  146.3110  143.8940   94.4850 C   0  0  0  0  0  0  0  0  0  0  0  0
  146.7340  144.5670   95.6980 N   0  0  0  0  0  0  0  0  0  0  0  0
  147.7720  145.6200   95.6230 C   0  0  1  0  0  0  0  0  0  0  0  0
  147.1070  147.0060   95.5050 C   0  0  0  0  0  0  0  0  0  0  0  0
  147.4930  147.8430   96.5550 N   0  0  0  0  0  0  0  0  0  0  0  0
  148.8630  147.9890   96.5740 C   0  0  0  0  0  0  0  0  0  0  0  0
  149.5510  146.6680   96.7490 C   0  0  0  0  0  0  0  0  0  0  0  0
  148.5870  145.6070   96.8350 C   0  0  0  0  0  0  0  0  0  0  0  0
  147.7150  145.8680   97.9770 C   0  0  0  0  0  0  0  0  0  0  0  0
  147.0640  147.2910   97.7870 C   0  0  0  0  0  0  0  0  0  0  0  0
  145.2380  142.8010   94.5340 C   0  0  0  0  0  0  0  0  0  0  0  0
  144.1320  142.8110   95.3130 C   0  0  0  0  0  0  0  0  0  0  0  0
  143.2120  141.7120   95.2480 C   0  0  0  0  0  0  0  0  0  0  0  0
  142.0530  141.5720   95.9650 C   0  0  0  0  0  0  0  0  0  0  0  0
  141.2580  140.4390   95.7930 C   0  0  0  0  0  0  0  0  0  0  0  0
  141.6460  139.4390   94.8850 C   0  0  0  0  0  0  0  0  0  0  0  0
  142.8280  139.5750   94.1500 C   0  0  0  0  0  0  0  0  0  0  0  0
  143.3140  138.3050   92.9980 Cl  0  0  0  0  0  0  0  0  0  0  0  0
  143.6130  140.6910   94.3170 C   0  0  0  0  0  0  0  0  0  0  0  0
  145.1750  141.3160   93.6280 S   0  0  0  0  0  0  0  0  0  0  0  0
  146.3350  144.3260   96.5650 H   0  0  0  0  0  0  0  0  0  0  0  0
  148.4013  145.4241   94.7423 H   0  0  0  0  0  0  0  0  0  0  0  0
  147.4043  147.4665   94.5513 H   0  0  0  0  0  0  0  0  0  0  0  0
  146.0159  146.8735   95.5485 H   0  0  0  0  0  0  0  0  0  0  0  0
  149.1883  148.4391   95.6245 H   0  0  0  0  0  0  0  0  0  0  0  0
  149.1309  148.6344   97.4235 H   0  0  0  0  0  0  0  0  0  0  0  0
  150.2124  146.4874   95.8888 H   0  0  0  0  0  0  0  0  0  0  0  0
  150.1374  146.6925   97.6793 H   0  0  0  0  0  0  0  0  0  0  0  0
  149.0936  144.6371   96.9477 H   0  0  0  0  0  0  0  0  0  0  0  0
  146.9271  145.1020   98.0262 H   0  0  0  0  0  0  0  0  0  0  0  0
  148.2947  145.8379   98.9114 H   0  0  0  0  0  0  0  0  0  0  0  0
  145.9681  147.1961   97.7850 H   0  0  0  0  0  0  0  0  0  0  0  0
  147.3722  147.9496   98.6123 H   0  0  0  0  0  0  0  0  0  0  0  0
  143.9395  143.6554   95.9912 H   0  0  0  0  0  0  0  0  0  0  0  0
  141.7492  142.3537   96.6768 H   0  0  0  0  0  0  0  0  0  0  0  0
  140.3270  140.3281   96.3683 H   0  0  0  0  0  0  0  0  0  0  0  0
  141.0177  138.5460   94.7519 H   0  0  0  0  0  0  0  0  0  0  0  0
  1  2  2  0
  2  3  1  0
  3  4  1  0
  4  5  1  0
  5  6  1  0
  6  7  1  0
  7  8  1  0
  8  9  1  0
  9 10  1  0
 10 11  1  0
  2 12  1  0
 12 13  2  0
 13 14  1  0
 14 15  2  0
 15 16  1  0
 16 17  2  0
 17 18  1  0
 18 19  1  0
 18 20  2  0
 20 21  1  0
  9  4  1  0
 21 12  1  0
 11  6  1  0
 20 14  1  0
  3 22  1  0
  4 23  1  6
  5 24  1  0
  5 25  1  0
  7 26  1  0
  7 27  1  0
  8 28  1  0
  8 29  1  0
  9 30  1  0
 10 31  1  0
 10 32  1  0
 11 33  1  0
 11 34  1  0
 13 35  1  0
 15 36  1  0
 16 37  1  0
 17 38  1  0
M  END
>  <meeko>  (3)
{"is_sidechain": false}

>  <source_group>  (3)
CHRFAM7A at B face

>  <source_system>  (3)
CHRNA7_encenicline

>  <source_run>  (3)
hybrid_B_face_seed5519_ex32

>  <source_seed>  (3)
5519

>  <vina_pose_rank>  (3)
3

>  <vina_affinity_kcal_mol>  (3)
-5.899

>  <vina_rmsd_to_crystal_angstrom>  (3)
9.7637

$$$$
CHRNA7_encenicline__hybrid_B_face_seed5519_ex32__pose04
     RDKit          3D

 38 41  0  0  0  0  0  0  0  0999 V2000
  140.9560  141.1840   89.1360 O   0  0  0  0  0  0  0  0  0  0  0  0
  141.5200  140.2050   88.7800 C   0  0  0  0  0  0  0  0  0  0  0  0
  142.6180  139.6800   89.5690 N   0  0  0  0  0  0  0  0  0  0  0  0
  143.0210  140.3770   90.8110 C   0  0  1  0  0  0  0  0  0  0  0  0
  142.2430  139.8040   92.0120 C   0  0  0  0  0  0  0  0  0  0  0  0
  143.1110  139.2970   92.9820 N   0  0  0  0  0  0  0  0  0  0  0  0
  143.9720  140.2820   93.4170 C   0  0  0  0  0  0  0  0  0  0  0  0
  144.7950  140.8270   92.2880 C   0  0  0  0  0  0  0  0  0  0  0  0
  144.4470  140.1790   91.0550 C   0  0  0  0  0  0  0  0  0  0  0  0
  144.6930  138.7460   91.2030 C   0  0  0  0  0  0  0  0  0  0  0  0
  143.8630  138.2270   92.4370 C   0  0  0  0  0  0  0  0  0  0  0  0
  141.0810  139.5040   87.4900 C   0  0  0  0  0  0  0  0  0  0  0  0
  141.7910  139.4470   86.3390 C   0  0  0  0  0  0  0  0  0  0  0  0
  141.2480  138.7480   85.2090 C   0  0  0  0  0  0  0  0  0  0  0  0
  141.8360  138.5980   83.9820 C   0  0  0  0  0  0  0  0  0  0  0  0
  141.1810  137.8880   82.9750 C   0  0  0  0  0  0  0  0  0  0  0  0
  139.9160  137.3270   83.2200 C   0  0  0  0  0  0  0  0  0  0  0  0
  139.3100  137.4760   84.4720 C   0  0  0  0  0  0  0  0  0  0  0  0
  137.7060  136.7600   84.7780 Cl  0  0  0  0  0  0  0  0  0  0  0  0
  139.9540  138.1740   85.4650 C   0  0  0  0  0  0  0  0  0  0  0  0
  139.6050  138.6310   87.1900 S   0  0  0  0  0  0  0  0  0  0  0  0
  143.0900  138.8660   89.2810 H   0  0  0  0  0  0  0  0  0  0  0  0
  142.8024  141.4486   90.6936 H   0  0  0  0  0  0  0  0  0  0  0  0
  141.6335  140.6033   92.4588 H   0  0  0  0  0  0  0  0  0  0  0  0
  141.6046  138.9832   91.6533 H   0  0  0  0  0  0  0  0  0  0  0  0
  143.3852  141.1004   93.8597 H   0  0  0  0  0  0  0  0  0  0  0  0
  144.6528  139.8429   94.1612 H   0  0  0  0  0  0  0  0  0  0  0  0
  144.6106  141.9074   92.1940 H   0  0  0  0  0  0  0  0  0  0  0  0
  145.8582  140.6414   92.5003 H   0  0  0  0  0  0  0  0  0  0  0  0
  145.0394  140.5911   90.2248 H   0  0  0  0  0  0  0  0  0  0  0  0
  144.3748  138.2179   90.2920 H   0  0  0  0  0  0  0  0  0  0  0  0
  145.7654  138.5598   91.3620 H   0  0  0  0  0  0  0  0  0  0  0  0
  143.1810  137.4280   92.1107 H   0  0  0  0  0  0  0  0  0  0  0  0
  144.5488  137.8331   93.2015 H   0  0  0  0  0  0  0  0  0  0  0  0
  142.7758  139.9323   86.2702 H   0  0  0  0  0  0  0  0  0  0  0  0
  142.8258  139.0376   83.7896 H   0  0  0  0  0  0  0  0  0  0  0  0
  141.6547  137.7674   81.9896 H   0  0  0  0  0  0  0  0  0  0  0  0
  139.4006  136.7688   82.4245 H   0  0  0  0  0  0  0  0  0  0  0  0
  1  2  2  0
  2  3  1  0
  3  4  1  0
  4  5  1  0
  5  6  1  0
  6  7  1  0
  7  8  1  0
  8  9  1  0
  9 10  1  0
 10 11  1  0
  2 12  1  0
 12 13  2  0
 13 14  1  0
 14 15  2  0
 15 16  1  0
 16 17  2  0
 17 18  1  0
 18 19  1  0
 18 20  2  0
 20 21  1  0
  9  4  1  0
 21 12  1  0
 11  6  1  0
 20 14  1  0
  3 22  1  0
  4 23  1  6
  5 24  1  0
  5 25  1  0
  7 26  1  0
  7 27  1  0
  8 28  1  0
  8 29  1  0
  9 30  1  0
 10 31  1  0
 10 32  1  0
 11 33  1  0
 11 34  1  0
 13 35  1  0
 15 36  1  0
 16 37  1  0
 17 38  1  0
M  END
>  <meeko>  (4)
{"is_sidechain": false}

>  <source_group>  (4)
CHRFAM7A at B face

>  <source_system>  (4)
CHRNA7_encenicline

>  <source_run>  (4)
hybrid_B_face_seed5519_ex32

>  <source_seed>  (4)
5519

>  <vina_pose_rank>  (4)
4

>  <vina_affinity_kcal_mol>  (4)
-5.8780000000000001

>  <vina_rmsd_to_crystal_angstrom>  (4)
7.2925000000000004

$$$$
CHRNA7_encenicline__hybrid_B_face_seed5519_ex32__pose05
     RDKit          3D

 38 41  0  0  0  0  0  0  0  0999 V2000
  146.0210  144.8530   96.0500 O   0  0  0  0  0  0  0  0  0  0  0  0
  146.1470  144.2490   95.0390 C   0  0  0  0  0  0  0  0  0  0  0  0
  147.1350  144.6710   94.0660 N   0  0  0  0  0  0  0  0  0  0  0  0
  147.9740  145.8580   94.3480 C   0  0  1  0  0  0  0  0  0  0  0  0
  149.3250  145.4160   94.9460 C   0  0  0  0  0  0  0  0  0  0  0  0
  150.3940  145.8600   94.1630 N   0  0  0  0  0  0  0  0  0  0  0  0
  150.3670  147.2320   94.0480 C   0  0  0  0  0  0  0  0  0  0  0  0
  149.0920  147.7040   93.4130 C   0  0  0  0  0  0  0  0  0  0  0  0
  148.2400  146.5880   93.1120 C   0  0  0  0  0  0  0  0  0  0  0  0
  148.9520  145.6990   92.1970 C   0  0  0  0  0  0  0  0  0  0  0  0
  150.3120  145.2800   92.8730 C   0  0  0  0  0  0  0  0  0  0  0  0
  145.2640  143.0240   94.7730 C   0  0  0  0  0  0  0  0  0  0  0  0
  145.5450  142.0190   93.9120 C   0  0  0  0  0  0  0  0  0  0  0  0
  144.6190  140.9320   93.7710 C   0  0  0  0  0  0  0  0  0  0  0  0
  144.7550  139.8440   92.9500 C   0  0  0  0  0  0  0  0  0  0  0  0
  143.7630  138.8630   92.9190 C   0  0  0  0  0  0  0  0  0  0  0  0
  142.6240  138.9910   93.7320 C   0  0  0  0  0  0  0  0  0  0  0  0
  142.4790  140.0980   94.5740 C   0  0  0  0  0  0  0  0  0  0  0  0
  141.0320  140.2540   95.6040 Cl  0  0  0  0  0  0  0  0  0  0  0  0
  143.4550  141.0660   94.6050 C   0  0  0  0  0  0  0  0  0  0  0  0
  143.7270  142.6310   95.4890 S   0  0  0  0  0  0  0  0  0  0  0  0
  147.2470  144.1730   93.2240 H   0  0  0  0  0  0  0  0  0  0  0  0
  147.4357  146.5021   95.0589 H   0  0  0  0  0  0  0  0  0  0  0  0
  149.4235  145.8349   95.9583 H   0  0  0  0  0  0  0  0  0  0  0  0
  149.3491  144.3167   94.9770 H   0  0  0  0  0  0  0  0  0  0  0  0
  150.4535  147.6768   95.0503 H   0  0  0  0  0  0  0  0  0  0  0  0
  151.2070  147.5421   93.4091 H   0  0  0  0  0  0  0  0  0  0  0  0
  148.5711  148.3813   94.1058 H   0  0  0  0  0  0  0  0  0  0  0  0
  149.3327  148.2316   92.4783 H   0  0  0  0  0  0  0  0  0  0  0  0
  147.2985  146.9352   92.6614 H   0  0  0  0  0  0  0  0  0  0  0  0
  148.3437  144.8041   91.9991 H   0  0  0  0  0  0  0  0  0  0  0  0
  149.1449  146.2121   91.2433 H   0  0  0  0  0  0  0  0  0  0  0  0
  150.3566  144.1843   92.9596 H   0  0  0  0  0  0  0  0  0  0  0  0
  151.1526  145.6325   92.2573 H   0  0  0  0  0  0  0  0  0  0  0  0
  146.4752  142.0350   93.3251 H   0  0  0  0  0  0  0  0  0  0  0  0
  145.6472  139.7434   92.3144 H   0  0  0  0  0  0  0  0  0  0  0  0
  143.8726  137.9901   92.2586 H   0  0  0  0  0  0  0  0  0  0  0  0
  141.8429  138.2169   93.7060 H   0  0  0  0  0  0  0  0  0  0  0  0
  1  2  2  0
  2  3  1  0
  3  4  1  0
  4  5  1  0
  5  6  1  0
  6  7  1  0
  7  8  1  0
  8  9  1  0
  9 10  1  0
 10 11  1  0
  2 12  1  0
 12 13  2  0
 13 14  1  0
 14 15  2  0
 15 16  1  0
 16 17  2  0
 17 18  1  0
 18 19  1  0
 18 20  2  0
 20 21  1  0
  9  4  1  0
 21 12  1  0
 11  6  1  0
 20 14  1  0
  3 22  1  0
  4 23  1  1
  5 24  1  0
  5 25  1  0
  7 26  1  0
  7 27  1  0
  8 28  1  0
  8 29  1  0
  9 30  1  0
 10 31  1  0
 10 32  1  0
 11 33  1  0
 11 34  1  0
 13 35  1  0
 15 36  1  0
 16 37  1  0
 17 38  1  0
M  END
>  <meeko>  (5)
{"is_sidechain": false}

>  <source_group>  (5)
CHRFAM7A at B face

>  <source_system>  (5)
CHRNA7_encenicline

>  <source_run>  (5)
hybrid_B_face_seed5519_ex32

>  <source_seed>  (5)
5519

>  <vina_pose_rank>  (5)
5

>  <vina_affinity_kcal_mol>  (5)
-5.806

>  <vina_rmsd_to_crystal_angstrom>  (5)
9.3754000000000008

$$$$
CHRNA7_encenicline__hybrid_B_face_seed5519_ex32__pose06
     RDKit          3D

 38 41  0  0  0  0  0  0  0  0999 V2000
  146.7530  144.5250   93.4950 O   0  0  0  0  0  0  0  0  0  0  0  0
  146.4100  144.1290   94.5570 C   0  0  0  0  0  0  0  0  0  0  0  0
  147.0050  144.6820   95.7580 N   0  0  0  0  0  0  0  0  0  0  0  0
  148.0380  145.7360   95.6410 C   0  0  1  0  0  0  0  0  0  0  0  0
  147.3860  147.1270   95.7600 C   0  0  0  0  0  0  0  0  0  0  0  0
  147.9310  147.8530   96.8220 N   0  0  0  0  0  0  0  0  0  0  0  0
  149.2920  147.9940   96.6580 C   0  0  0  0  0  0  0  0  0  0  0  0
  149.9770  146.6600   96.5980 C   0  0  0  0  0  0  0  0  0  0  0  0
  149.0170  145.5980   96.7150 C   0  0  0  0  0  0  0  0  0  0  0  0
  148.3220  145.7430   97.9910 C   0  0  0  0  0  0  0  0  0  0  0  0
  147.6740  147.1780   98.0410 C   0  0  0  0  0  0  0  0  0  0  0  0
  145.3380  143.0370   94.6490 C   0  0  0  0  0  0  0  0  0  0  0  0
  145.3160  141.8880   93.9360 C   0  0  0  0  0  0  0  0  0  0  0  0
  144.2420  140.9550   94.1330 C   0  0  0  0  0  0  0  0  0  0  0  0
  144.0760  139.7540   93.4960 C   0  0  0  0  0  0  0  0  0  0  0  0
  142.9740  138.9520   93.7940 C   0  0  0  0  0  0  0  0  0  0  0  0
  142.0340  139.3760   94.7490 C   0  0  0  0  0  0  0  0  0  0  0  0
  142.1990  140.6010   95.4040 C   0  0  0  0  0  0  0  0  0  0  0  0
  141.0040  141.1330   96.6160 Cl  0  0  0  0  0  0  0  0  0  0  0  0
  143.2830  141.3930   95.1110 C   0  0  0  0  0  0  0  0  0  0  0  0
  143.9230  143.0020   95.6630 S   0  0  0  0  0  0  0  0  0  0  0  0
  146.7230  144.3600   96.6450 H   0  0  0  0  0  0  0  0  0  0  0  0
  148.5314  145.6305   94.6635 H   0  0  0  0  0  0  0  0  0  0  0  0
  147.5512  147.6816   94.8245 H   0  0  0  0  0  0  0  0  0  0  0  0
  146.3105  146.9919   95.9471 H   0  0  0  0  0  0  0  0  0  0  0  0
  149.4853  148.5381   95.7217 H   0  0  0  0  0  0  0  0  0  0  0  0
  149.6892  148.5489   97.5208 H   0  0  0  0  0  0  0  0  0  0  0  0
  150.5053  146.5668   95.6377 H   0  0  0  0  0  0  0  0  0  0  0  0
  150.6915  146.5882   97.4312 H   0  0  0  0  0  0  0  0  0  0  0  0
  149.5180  144.6205   96.6556 H   0  0  0  0  0  0  0  0  0  0  0  0
  147.5370  144.9772   98.0761 H   0  0  0  0  0  0  0  0  0  0  0  0
  149.0291  145.6172   98.8242 H   0  0  0  0  0  0  0  0  0  0  0  0
  146.5877  147.0853   98.1872 H   0  0  0  0  0  0  0  0  0  0  0  0
  148.1080  147.7483   98.8755 H   0  0  0  0  0  0  0  0  0  0  0  0
  146.1141  141.6698   93.2111 H   0  0  0  0  0  0  0  0  0  0  0  0
  144.8119  139.4216   92.7491 H   0  0  0  0  0  0  0  0  0  0  0  0
  142.8408  137.9878   93.2815 H   0  0  0  0  0  0  0  0  0  0  0  0
  141.1656  138.7424   94.9822 H   0  0  0  0  0  0  0  0  0  0  0  0
  1  2  2  0
  2  3  1  0
  3  4  1  0
  4  5  1  0
  5  6  1  0
  6  7  1  0
  7  8  1  0
  8  9  1  0
  9 10  1  0
 10 11  1  0
  2 12  1  0
 12 13  2  0
 13 14  1  0
 14 15  2  0
 15 16  1  0
 16 17  2  0
 17 18  1  0
 18 19  1  0
 18 20  2  0
 20 21  1  0
  9  4  1  0
 21 12  1  0
 11  6  1  0
 20 14  1  0
  3 22  1  0
  4 23  1  6
  5 24  1  0
  5 25  1  0
  7 26  1  0
  7 27  1  0
  8 28  1  0
  8 29  1  0
  9 30  1  0
 10 31  1  0
 10 32  1  0
 11 33  1  0
 11 34  1  0
 13 35  1  0
 15 36  1  0
 16 37  1  0
 17 38  1  0
M  END
>  <meeko>  (6)
{"is_sidechain": false}

>  <source_group>  (6)
CHRFAM7A at B face

>  <source_system>  (6)
CHRNA7_encenicline

>  <source_run>  (6)
hybrid_B_face_seed5519_ex32

>  <source_seed>  (6)
5519

>  <vina_pose_rank>  (6)
6

>  <vina_affinity_kcal_mol>  (6)
-5.7249999999999996

>  <vina_rmsd_to_crystal_angstrom>  (6)
10.021699999999999

$$$$
CHRNA7_encenicline__hybrid_B_face_seed5519_ex32__pose07
     RDKit          3D

 38 41  0  0  0  0  0  0  0  0999 V2000
  147.5000  138.5730   90.0880 O   0  0  0  0  0  0  0  0  0  0  0  0
  147.7150  138.3260   91.2260 C   0  0  0  0  0  0  0  0  0  0  0  0
  146.6250  138.3340   92.1820 N   0  0  0  0  0  0  0  0  0  0  0  0
  145.2550  138.6540   91.7230 C   0  0  1  0  0  0  0  0  0  0  0  0
  144.2210  137.9280   92.6060 C   0  0  0  0  0  0  0  0  0  0  0  0
  143.3500  138.8350   93.2160 N   0  0  0  0  0  0  0  0  0  0  0  0
  142.6970  139.5870   92.2640 C   0  0  0  0  0  0  0  0  0  0  0  0
  143.6650  140.3600   91.4180 C   0  0  0  0  0  0  0  0  0  0  0  0
  145.0150  140.0910   91.8270 C   0  0  0  0  0  0  0  0  0  0  0  0
  145.1580  140.4790   93.2280 C   0  0  0  0  0  0  0  0  0  0  0  0
  144.0820  139.6950   94.0710 C   0  0  0  0  0  0  0  0  0  0  0  0
  149.1430  137.9980   91.6740 C   0  0  0  0  0  0  0  0  0  0  0  0
  149.8410  138.6500   92.6330 C   0  0  0  0  0  0  0  0  0  0  0  0
  151.1760  138.2240   92.9460 C   0  0  0  0  0  0  0  0  0  0  0  0
  152.0090  138.7730   93.8850 C   0  0  0  0  0  0  0  0  0  0  0  0
  153.2870  138.2480   94.0770 C   0  0  0  0  0  0  0  0  0  0  0  0
  153.7210  137.1560   93.3060 C   0  0  0  0  0  0  0  0  0  0  0  0
  152.8750  136.5910   92.3470 C   0  0  0  0  0  0  0  0  0  0  0  0
  153.4300  135.2040   91.3730 Cl  0  0  0  0  0  0  0  0  0  0  0  0
  151.6160  137.1060   92.1560 C   0  0  0  0  0  0  0  0  0  0  0  0
  150.1950  136.7440   91.0810 S   0  0  0  0  0  0  0  0  0  0  0  0
  146.7950  138.1280   93.1300 H   0  0  0  0  0  0  0  0  0  0  0  0
  145.1556  138.3289   90.6769 H   0  0  0  0  0  0  0  0  0  0  0  0
  143.6379  137.2362   91.9803 H   0  0  0  0  0  0  0  0  0  0  0  0
  144.7595  137.3798   93.3931 H   0  0  0  0  0  0  0  0  0  0  0  0
  142.1127  138.9162   91.6170 H   0  0  0  0  0  0  0  0  0  0  0  0
  142.0397  140.3027   92.7794 H   0  0  0  0  0  0  0  0  0  0  0  0
  143.5403  140.0668   90.3652 H   0  0  0  0  0  0  0  0  0  0  0  0
  143.4638  141.4348   91.5381 H   0  0  0  0  0  0  0  0  0  0  0  0
  145.7243  140.6465   91.1959 H   0  0  0  0  0  0  0  0  0  0  0  0
  146.1672  140.2237   93.5835 H   0  0  0  0  0  0  0  0  0  0  0  0
  145.0091  141.5633   93.3380 H   0  0  0  0  0  0  0  0  0  0  0  0
  144.5860  139.0996   94.8465 H   0  0  0  0  0  0  0  0  0  0  0  0
  143.3958  140.4106   94.5476 H   0  0  0  0  0  0  0  0  0  0  0  0
  149.3896  139.4986   93.1678 H   0  0  0  0  0  0  0  0  0  0  0  0
  151.6698  139.6283   94.4879 H   0  0  0  0  0  0  0  0  0  0  0  0
  153.9550  138.6886   94.8317 H   0  0  0  0  0  0  0  0  0  0  0  0
  154.7298  136.7444   93.4576 H   0  0  0  0  0  0  0  0  0  0  0  0
  1  2  2  0
  2  3  1  0
  3  4  1  0
  4  5  1  0
  5  6  1  0
  6  7  1  0
  7  8  1  0
  8  9  1  0
  9 10  1  0
 10 11  1  0
  2 12  1  0
 12 13  2  0
 13 14  1  0
 14 15  2  0
 15 16  1  0
 16 17  2  0
 17 18  1  0
 18 19  1  0
 18 20  2  0
 20 21  1  0
  9  4  1  0
 21 12  1  0
 11  6  1  0
 20 14  1  0
  3 22  1  0
  4 23  1  6
  5 24  1  0
  5 25  1  0
  7 26  1  0
  7 27  1  0
  8 28  1  0
  8 29  1  0
  9 30  1  0
 10 31  1  0
 10 32  1  0
 11 33  1  0
 11 34  1  0
 13 35  1  0
 15 36  1  0
 16 37  1  0
 17 38  1  0
M  END
>  <meeko>  (7)
{"is_sidechain": false}

>  <source_group>  (7)
CHRFAM7A at B face

>  <source_system>  (7)
CHRNA7_encenicline

>  <source_run>  (7)
hybrid_B_face_seed5519_ex32

>  <source_seed>  (7)
5519

>  <vina_pose_rank>  (7)
7

>  <vina_affinity_kcal_mol>  (7)
-5.7160000000000002

>  <vina_rmsd_to_crystal_angstrom>  (7)
6.3879999999999999

$$$$
CHRNA7_encenicline__hybrid_B_face_seed5519_ex32__pose08
     RDKit          3D

 38 41  0  0  0  0  0  0  0  0999 V2000
  145.9740  145.2200   95.7390 O   0  0  0  0  0  0  0  0  0  0  0  0
  146.1440  144.4360   94.8670 C   0  0  0  0  0  0  0  0  0  0  0  0
  147.2000  144.6550   93.8970 N   0  0  0  0  0  0  0  0  0  0  0  0
  148.0520  145.8610   94.0090 C   0  0  1  0  0  0  0  0  0  0  0  0
  149.3210  145.5340   94.8200 C   0  0  0  0  0  0  0  0  0  0  0  0
  150.4770  145.7830   94.0750 N   0  0  0  0  0  0  0  0  0  0  0  0
  150.5130  147.1010   93.6730 C   0  0  0  0  0  0  0  0  0  0  0  0
  149.3240  147.4480   92.8270 C   0  0  0  0  0  0  0  0  0  0  0  0
  148.4630  146.3070   92.6810 C   0  0  0  0  0  0  0  0  0  0  0  0
  149.2250  145.2330   92.0500 C   0  0  0  0  0  0  0  0  0  0  0  0
  150.4980  144.9450   92.9340 C   0  0  0  0  0  0  0  0  0  0  0  0
  145.2460  143.1970   94.7750 C   0  0  0  0  0  0  0  0  0  0  0  0
  144.0650  143.0270   95.4120 C   0  0  0  0  0  0  0  0  0  0  0  0
  143.3320  141.8070   95.2270 C   0  0  0  0  0  0  0  0  0  0  0  0
  142.1280  141.4820   95.7940 C   0  0  0  0  0  0  0  0  0  0  0  0
  141.5360  140.2490   95.5180 C   0  0  0  0  0  0  0  0  0  0  0  0
  142.1750  139.3400   94.6580 C   0  0  0  0  0  0  0  0  0  0  0  0
  143.4030  139.6660   94.0750 C   0  0  0  0  0  0  0  0  0  0  0  0
  144.2080  138.5080   92.9830 Cl  0  0  0  0  0  0  0  0  0  0  0  0
  143.9890  140.8790   94.3450 C   0  0  0  0  0  0  0  0  0  0  0  0
  145.5130  141.7420   93.8590 S   0  0  0  0  0  0  0  0  0  0  0  0
  147.3490  144.0080   93.1710 H   0  0  0  0  0  0  0  0  0  0  0  0
  147.4727  146.6498   94.5111 H   0  0  0  0  0  0  0  0  0  0  0  0
  149.3376  146.1569   95.7265 H   0  0  0  0  0  0  0  0  0  0  0  0
  149.3001  144.4660   95.0826 H   0  0  0  0  0  0  0  0  0  0  0  0
  150.5193  147.7467   94.5635 H   0  0  0  0  0  0  0  0  0  0  0  0
  151.4218  147.2550   93.0726 H   0  0  0  0  0  0  0  0  0  0  0  0
  148.7646  148.2653   93.3058 H   0  0  0  0  0  0  0  0  0  0  0  0
  149.6732  147.7611   91.8320 H   0  0  0  0  0  0  0  0  0  0  0  0
  147.5829  146.5658   92.0739 H   0  0  0  0  0  0  0  0  0  0  0  0
  148.6054  144.3266   91.9835 H   0  0  0  0  0  0  0  0  0  0  0  0
  149.5273  145.5284   91.0345 H   0  0  0  0  0  0  0  0  0  0  0  0
  150.4936  143.8919   93.2518 H   0  0  0  0  0  0  0  0  0  0  0  0
  151.4063  145.1459   92.3470 H   0  0  0  0  0  0  0  0  0  0  0  0
  143.6694  143.8175   96.0667 H   0  0  0  0  0  0  0  0  0  0  0  0
  141.6276  142.1935   96.4673 H   0  0  0  0  0  0  0  0  0  0  0  0
  140.5692  139.9887   95.9736 H   0  0  0  0  0  0  0  0  0  0  0  0
  141.7071  138.3680   94.4426 H   0  0  0  0  0  0  0  0  0  0  0  0
  1  2  2  0
  2  3  1  0
  3  4  1  0
  4  5  1  0
  5  6  1  0
  6  7  1  0
  7  8  1  0
  8  9  1  0
  9 10  1  0
 10 11  1  0
  2 12  1  0
 12 13  2  0
 13 14  1  0
 14 15  2  0
 15 16  1  0
 16 17  2  0
 17 18  1  0
 18 19  1  0
 18 20  2  0
 20 21  1  0
  9  4  1  0
 21 12  1  0
 11  6  1  0
 20 14  1  0
  3 22  1  0
  4 23  1  1
  5 24  1  0
  5 25  1  0
  7 26  1  0
  7 27  1  0
  8 28  1  0
  8 29  1  0
  9 30  1  0
 10 31  1  0
 10 32  1  0
 11 33  1  0
 11 34  1  0
 13 35  1  0
 15 36  1  0
 16 37  1  0
 17 38  1  0
M  END
>  <meeko>  (8)
{"is_sidechain": false}

>  <source_group>  (8)
CHRFAM7A at B face

>  <source_system>  (8)
CHRNA7_encenicline

>  <source_run>  (8)
hybrid_B_face_seed5519_ex32

>  <source_seed>  (8)
5519

>  <vina_pose_rank>  (8)
8

>  <vina_affinity_kcal_mol>  (8)
-5.6719999999999997

>  <vina_rmsd_to_crystal_angstrom>  (8)
9.4060000000000006

$$$$
CHRNA7_encenicline__hybrid_B_face_seed5519_ex32__pose09
     RDKit          3D

 38 41  0  0  0  0  0  0  0  0999 V2000
  145.7610  138.3170   90.9170 O   0  0  0  0  0  0  0  0  0  0  0  0
  146.1570  138.7000   91.9650 C   0  0  0  0  0  0  0  0  0  0  0  0
  147.5280  138.4350   92.3580 N   0  0  0  0  0  0  0  0  0  0  0  0
  148.4160  137.6830   91.4430 C   0  0  1  0  0  0  0  0  0  0  0  0
  149.0410  138.6430   90.4110 C   0  0  0  0  0  0  0  0  0  0  0  0
  150.4360  138.6150   90.4740 N   0  0  0  0  0  0  0  0  0  0  0  0
  150.9000  137.3360   90.2550 C   0  0  0  0  0  0  0  0  0  0  0  0
  150.3640  136.3770   91.2760 C   0  0  0  0  0  0  0  0  0  0  0  0
  149.4980  137.0580   92.1970 C   0  0  0  0  0  0  0  0  0  0  0  0
  150.2650  138.1100   92.8590 C   0  0  0  0  0  0  0  0  0  0  0  0
  150.8640  139.0560   91.7500 C   0  0  0  0  0  0  0  0  0  0  0  0
  145.2160  139.4760   92.8930 C   0  0  0  0  0  0  0  0  0  0  0  0
  145.4730  140.6810   93.4530 C   0  0  0  0  0  0  0  0  0  0  0  0
  144.4890  141.2880   94.3030 C   0  0  0  0  0  0  0  0  0  0  0  0
  144.5940  142.4960   94.9410 C   0  0  0  0  0  0  0  0  0  0  0  0
  143.5470  142.9570   95.7410 C   0  0  0  0  0  0  0  0  0  0  0  0
  142.3850  142.1810   95.8930 C   0  0  0  0  0  0  0  0  0  0  0  0
  142.2720  140.9470   95.2440 C   0  0  0  0  0  0  0  0  0  0  0  0
  140.7950  139.9690   95.4390 Cl  0  0  0  0  0  0  0  0  0  0  0  0
  143.3010  140.4920   94.4560 C   0  0  0  0  0  0  0  0  0  0  0  0
  143.6300  139.0180   93.4430 S   0  0  0  0  0  0  0  0  0  0  0  0
  147.8650  138.7530   93.2260 H   0  0  0  0  0  0  0  0  0  0  0  0
  147.8171  136.9138   90.9333 H   0  0  0  0  0  0  0  0  0  0  0  0
  148.7214  138.3426   89.4022 H   0  0  0  0  0  0  0  0  0  0  0  0
  148.7029  139.6650   90.6372 H   0  0  0  0  0  0  0  0  0  0  0  0
  150.5836  137.0070   89.2542 H   0  0  0  0  0  0  0  0  0  0  0  0
  151.9971  137.3476   90.3334 H   0  0  0  0  0  0  0  0  0  0  0  0
  149.7983  135.5834   90.7659 H   0  0  0  0  0  0  0  0  0  0  0  0
  151.2065  135.9422   91.8337 H   0  0  0  0  0  0  0  0  0  0  0  0
  149.0925  136.3511   92.9358 H   0  0  0  0  0  0  0  0  0  0  0  0
  149.6070  138.6874   93.5251 H   0  0  0  0  0  0  0  0  0  0  0  0
  151.0743  137.6691   93.4595 H   0  0  0  0  0  0  0  0  0  0  0  0
  150.5153  140.0856   91.9184 H   0  0  0  0  0  0  0  0  0  0  0  0
  151.9626  139.0292   91.7985 H   0  0  0  0  0  0  0  0  0  0  0  0
  146.4281  141.1908   93.2582 H   0  0  0  0  0  0  0  0  0  0  0  0
  145.5038  143.1029   94.8228 H   0  0  0  0  0  0  0  0  0  0  0  0
  143.6314  143.9273   96.2523 H   0  0  0  0  0  0  0  0  0  0  0  0
  141.5614  142.5454   96.5246 H   0  0  0  0  0  0  0  0  0  0  0  0
  1  2  2  0
  2  3  1  0
  3  4  1  0
  4  5  1  0
  5  6  1  0
  6  7  1  0
  7  8  1  0
  8  9  1  0
  9 10  1  0
 10 11  1  0
  2 12  1  0
 12 13  2  0
 13 14  1  0
 14 15  2  0
 15 16  1  0
 16 17  2  0
 17 18  1  0
 18 19  1  0
 18 20  2  0
 20 21  1  0
  9  4  1  0
 21 12  1  0
 11  6  1  0
 20 14  1  0
  3 22  1  0
  4 23  1  6
  5 24  1  0
  5 25  1  0
  7 26  1  0
  7 27  1  0
  8 28  1  0
  8 29  1  0
  9 30  1  0
 10 31  1  0
 10 32  1  0
 11 33  1  0
 11 34  1  0
 13 35  1  0
 15 36  1  0
 16 37  1  0
 17 38  1  0
M  END
>  <meeko>  (9)
{"is_sidechain": false}

>  <source_group>  (9)
CHRFAM7A at B face

>  <source_system>  (9)
CHRNA7_encenicline

>  <source_run>  (9)
hybrid_B_face_seed5519_ex32

>  <source_seed>  (9)
5519

>  <vina_pose_rank>  (9)
9

>  <vina_affinity_kcal_mol>  (9)
-5.6639999999999997

>  <vina_rmsd_to_crystal_angstrom>  (9)
8.7403999999999993

$$$$
CHRNA7_encenicline__hybrid_B_face_seed5519_ex32__pose10
     RDKit          3D

 38 41  0  0  0  0  0  0  0  0999 V2000
  148.5040  137.6720   92.2990 O   0  0  0  0  0  0  0  0  0  0  0  0
  147.9560  138.1390   91.3590 C   0  0  0  0  0  0  0  0  0  0  0  0
  148.6580  138.2430   90.0940 N   0  0  0  0  0  0  0  0  0  0  0  0
  150.0570  137.7660   89.9960 C   0  0  1  0  0  0  0  0  0  0  0  0
  150.0890  136.3590   89.3660 C   0  0  0  0  0  0  0  0  0  0  0  0
  150.8620  136.3440   88.2020 N   0  0  0  0  0  0  0  0  0  0  0  0
  152.1480  136.7570   88.4760 C   0  0  0  0  0  0  0  0  0  0  0  0
  152.1690  138.1480   89.0360 C   0  0  0  0  0  0  0  0  0  0  0  0
  150.8330  138.6640   89.1470 C   0  0  0  0  0  0  0  0  0  0  0  0
  150.2310  138.6730   87.8160 C   0  0  0  0  0  0  0  0  0  0  0  0
  150.2890  137.2080   87.2380 C   0  0  0  0  0  0  0  0  0  0  0  0
  146.5080  138.6250   91.4890 C   0  0  0  0  0  0  0  0  0  0  0  0
  145.7060  139.0050   90.4670 C   0  0  0  0  0  0  0  0  0  0  0  0
  144.3660  139.4360   90.7450 C   0  0  0  0  0  0  0  0  0  0  0  0
  143.4340  139.8480   89.8290 C   0  0  0  0  0  0  0  0  0  0  0  0
  142.1650  140.2420   90.2540 C   0  0  0  0  0  0  0  0  0  0  0  0
  141.8420  140.2170   91.6210 C   0  0  0  0  0  0  0  0  0  0  0  0
  142.7880  139.7970   92.5610 C   0  0  0  0  0  0  0  0  0  0  0  0
  142.3720  139.7650   94.2940 Cl  0  0  0  0  0  0  0  0  0  0  0  0
  144.0390  139.4080   92.1450 C   0  0  0  0  0  0  0  0  0  0  0  0
  145.5600  138.8050   92.9370 S   0  0  0  0  0  0  0  0  0  0  0  0
  148.2090  138.6280   89.3080 H   0  0  0  0  0  0  0  0  0  0  0  0
  150.4863  137.7387   91.0084 H   0  0  0  0  0  0  0  0  0  0  0  0
  150.5178  135.6511   90.0906 H   0  0  0  0  0  0  0  0  0  0  0  0
  149.0601  136.0709   89.1046 H   0  0  0  0  0  0  0  0  0  0  0  0
  152.5961  136.0696   89.2086 H   0  0  0  0  0  0  0  0  0  0  0  0
  152.7200  136.7537   87.5364 H   0  0  0  0  0  0  0  0  0  0  0  0
  152.6346  138.1304   90.0325 H   0  0  0  0  0  0  0  0  0  0  0  0
  152.7464  138.7958   88.3600 H   0  0  0  0  0  0  0  0  0  0  0  0
  150.8475  139.6782   89.5728 H   0  0  0  0  0  0  0  0  0  0  0  0
  149.1846  139.0054   87.8831 H   0  0  0  0  0  0  0  0  0  0  0  0
  150.7781  139.3630   87.1567 H   0  0  0  0  0  0  0  0  0  0  0  0
  149.2708  136.8673   86.9990 H   0  0  0  0  0  0  0  0  0  0  0  0
  150.9022  137.1975   86.3249 H   0  0  0  0  0  0  0  0  0  0  0  0
  146.0784  138.9836   89.4322 H   0  0  0  0  0  0  0  0  0  0  0  0
  143.6864  139.8681   88.7585 H   0  0  0  0  0  0  0  0  0  0  0  0
  141.4169  140.5724   89.5184 H   0  0  0  0  0  0  0  0  0  0  0  0
  140.8409  140.5291   91.9531 H   0  0  0  0  0  0  0  0  0  0  0  0
  1  2  2  0
  2  3  1  0
  3  4  1  0
  4  5  1  0
  5  6  1  0
  6  7  1  0
  7  8  1  0
  8  9  1  0
  9 10  1  0
 10 11  1  0
  2 12  1  0
 12 13  2  0
 13 14  1  0
 14 15  2  0
 15 16  1  0
 16 17  2  0
 17 18  1  0
 18 19  1  0
 18 20  2  0
 20 21  1  0
  9  4  1  0
 21 12  1  0
 11  6  1  0
 20 14  1  0
  3 22  1  0
  4 23  1  1
  5 24  1  0
  5 25  1  0
  7 26  1  0
  7 27  1  0
  8 28  1  0
  8 29  1  0
  9 30  1  0
 10 31  1  0
 10 32  1  0
 11 33  1  0
 11 34  1  0
 13 35  1  0
 15 36  1  0
 16 37  1  0
 17 38  1  0
M  END
>  <meeko>  (10)
{"is_sidechain": false}

>  <source_group>  (10)
CHRFAM7A at B face

>  <source_system>  (10)
CHRNA7_encenicline

>  <source_run>  (10)
hybrid_B_face_seed5519_ex32

>  <source_seed>  (10)
5519

>  <vina_pose_rank>  (10)
10

>  <vina_affinity_kcal_mol>  (10)
-5.5129999999999999

>  <vina_rmsd_to_crystal_angstrom>  (10)
8.5645000000000007

$$$$
CHRNA7_encenicline__hybrid_B_face_seed5519_ex32__pose11
     RDKit          3D

 38 41  0  0  0  0  0  0  0  0999 V2000
  151.5990  136.3390   87.3900 O   0  0  0  0  0  0  0  0  0  0  0  0
  150.8340  136.2340   88.2880 C   0  0  0  0  0  0  0  0  0  0  0  0
  149.5250  135.6540   88.0570 N   0  0  0  0  0  0  0  0  0  0  0  0
  149.1600  135.2020   86.6950 C   0  0  1  0  0  0  0  0  0  0  0  0
  148.0760  134.1100   86.7770 C   0  0  0  0  0  0  0  0  0  0  0  0
  146.9250  134.4850   86.0780 N   0  0  0  0  0  0  0  0  0  0  0  0
  147.2280  134.7370   84.7570 C   0  0  0  0  0  0  0  0  0  0  0  0
  148.2380  135.8380   84.6270 C   0  0  0  0  0  0  0  0  0  0  0  0
  148.6240  136.3200   85.9240 C   0  0  0  0  0  0  0  0  0  0  0  0
  147.4310  136.8180   86.6050 C   0  0  0  0  0  0  0  0  0  0  0  0
  146.3720  135.6510   86.6610 C   0  0  0  0  0  0  0  0  0  0  0  0
  151.2390  136.7100   89.6880 C   0  0  0  0  0  0  0  0  0  0  0  0
  152.2310  136.1880   90.4460 C   0  0  0  0  0  0  0  0  0  0  0  0
  152.4960  136.7430   91.7420 C   0  0  0  0  0  0  0  0  0  0  0  0
  153.4590  136.3330   92.6250 C   0  0  0  0  0  0  0  0  0  0  0  0
  153.5960  136.9730   93.8570 C   0  0  0  0  0  0  0  0  0  0  0  0
  152.7450  138.0410   94.1920 C   0  0  0  0  0  0  0  0  0  0  0  0
  151.7610  138.4650   93.2950 C   0  0  0  0  0  0  0  0  0  0  0  0
  150.6860  139.8210   93.7240 Cl  0  0  0  0  0  0  0  0  0  0  0  0
  151.6240  137.8350   92.0810 C   0  0  0  0  0  0  0  0  0  0  0  0
  150.5460  138.0020   90.6270 S   0  0  0  0  0  0  0  0  0  0  0  0
  148.8850  135.5620   88.7980 H   0  0  0  0  0  0  0  0  0  0  0  0
  150.0627  134.8051   86.2076 H   0  0  0  0  0  0  0  0  0  0  0  0
  148.4712  133.1793   86.3440 H   0  0  0  0  0  0  0  0  0  0  0  0
  147.8088  133.9640   87.8340 H   0  0  0  0  0  0  0  0  0  0  0  0
  147.6357  133.8220   84.3026 H   0  0  0  0  0  0  0  0  0  0  0  0
  146.3066  135.0506   84.2445 H   0  0  0  0  0  0  0  0  0  0  0  0
  149.1264  135.4547   84.1037 H   0  0  0  0  0  0  0  0  0  0  0  0
  147.7913  136.6662   84.0573 H   0  0  0  0  0  0  0  0  0  0  0  0
  149.3763  137.1168   85.8284 H   0  0  0  0  0  0  0  0  0  0  0  0
  147.6901  137.1349   87.6260 H   0  0  0  0  0  0  0  0  0  0  0  0
  147.0168  137.6811   86.0632 H   0  0  0  0  0  0  0  0  0  0  0  0
  146.1062  135.4467   87.7087 H   0  0  0  0  0  0  0  0  0  0  0  0
  145.4698  135.9468   86.1055 H   0  0  0  0  0  0  0  0  0  0  0  0
  152.8296  135.3446   90.0713 H   0  0  0  0  0  0  0  0  0  0  0  0
  154.1253  135.4980   92.3626 H   0  0  0  0  0  0  0  0  0  0  0  0
  154.3693  136.6423   94.5659 H   0  0  0  0  0  0  0  0  0  0  0  0
  152.8542  138.5446   95.1638 H   0  0  0  0  0  0  0  0  0  0  0  0
  1  2  2  0
  2  3  1  0
  3  4  1  0
  4  5  1  0
  5  6  1  0
  6  7  1  0
  7  8  1  0
  8  9  1  0
  9 10  1  0
 10 11  1  0
  2 12  1  0
 12 13  2  0
 13 14  1  0
 14 15  2  0
 15 16  1  0
 16 17  2  0
 17 18  1  0
 18 19  1  0
 18 20  2  0
 20 21  1  0
  9  4  1  0
 21 12  1  0
 11  6  1  0
 20 14  1  0
  3 22  1  0
  4 23  1  6
  5 24  1  0
  5 25  1  0
  7 26  1  0
  7 27  1  0
  8 28  1  0
  8 29  1  0
  9 30  1  0
 10 31  1  0
 10 32  1  0
 11 33  1  0
 11 34  1  0
 13 35  1  0
 15 36  1  0
 16 37  1  0
 17 38  1  0
M  END
>  <meeko>  (11)
{"is_sidechain": false}

>  <source_group>  (11)
CHRFAM7A at B face

>  <source_system>  (11)
CHRNA7_encenicline

>  <source_run>  (11)
hybrid_B_face_seed5519_ex32

>  <source_seed>  (11)
5519

>  <vina_pose_rank>  (11)
11

>  <vina_affinity_kcal_mol>  (11)
-5.4939999999999998

>  <vina_rmsd_to_crystal_angstrom>  (11)
8.8478999999999992

$$$$
CHRNA7_encenicline__hybrid_B_face_seed5519_ex32__pose12
     RDKit          3D

 38 41  0  0  0  0  0  0  0  0999 V2000
  139.8500  140.9640   87.7310 O   0  0  0  0  0  0  0  0  0  0  0  0
  140.7570  140.2050   87.8100 C   0  0  0  0  0  0  0  0  0  0  0  0
  141.1060  139.3790   86.6710 N   0  0  0  0  0  0  0  0  0  0  0  0
  140.3210  139.4920   85.4210 C   0  0  1  0  0  0  0  0  0  0  0  0
  141.2660  139.7250   84.2260 C   0  0  0  0  0  0  0  0  0  0  0  0
  141.1230  138.7230   83.2640 N   0  0  0  0  0  0  0  0  0  0  0  0
  139.8200  138.6680   82.8180 C   0  0  0  0  0  0  0  0  0  0  0  0
  138.8690  138.3820   83.9420 C   0  0  0  0  0  0  0  0  0  0  0  0
  139.5810  138.2560   85.1820 C   0  0  0  0  0  0  0  0  0  0  0  0
  140.5420  137.1630   85.0530 C   0  0  0  0  0  0  0  0  0  0  0  0
  141.4780  137.4710   83.8230 C   0  0  0  0  0  0  0  0  0  0  0  0
  141.5530  140.1100   89.1170 C   0  0  0  0  0  0  0  0  0  0  0  0
  142.8610  139.7830   89.2240 C   0  0  0  0  0  0  0  0  0  0  0  0
  143.4730  139.7360   90.5210 C   0  0  0  0  0  0  0  0  0  0  0  0
  144.7780  139.4270   90.7990 C   0  0  0  0  0  0  0  0  0  0  0  0
  145.2290  139.4210   92.1190 C   0  0  0  0  0  0  0  0  0  0  0  0
  144.3440  139.7320   93.1650 C   0  0  0  0  0  0  0  0  0  0  0  0
  143.0110  140.0500   92.8890 C   0  0  0  0  0  0  0  0  0  0  0  0
  141.8930  140.4460   94.2200 Cl  0  0  0  0  0  0  0  0  0  0  0  0
  142.5640  140.0560   91.5890 C   0  0  0  0  0  0  0  0  0  0  0  0
  140.9910  140.3880   90.7400 S   0  0  0  0  0  0  0  0  0  0  0  0
  141.8600  138.7480   86.7280 H   0  0  0  0  0  0  0  0  0  0  0  0
  139.6240  140.3367   85.5246 H   0  0  0  0  0  0  0  0  0  0  0  0
  141.0320  140.6975   83.7682 H   0  0  0  0  0  0  0  0  0  0  0  0
  142.3024  139.7079   84.5941 H   0  0  0  0  0  0  0  0  0  0  0  0
  139.5563  139.6341   82.3630 H   0  0  0  0  0  0  0  0  0  0  0  0
  139.7401  137.8551   82.0813 H   0  0  0  0  0  0  0  0  0  0  0  0
  138.1449  139.2061   84.0223 H   0  0  0  0  0  0  0  0  0  0  0  0
  138.3458  137.4370   83.7341 H   0  0  0  0  0  0  0  0  0  0  0  0
  138.8809  138.0611   86.0078 H   0  0  0  0  0  0  0  0  0  0  0  0
  141.1451  137.0876   85.9699 H   0  0  0  0  0  0  0  0  0  0  0  0
  140.0144  136.2101   84.8991 H   0  0  0  0  0  0  0  0  0  0  0  0
  142.5254  137.5021   84.1575 H   0  0  0  0  0  0  0  0  0  0  0  0
  141.3596  136.6830   83.0646 H   0  0  0  0  0  0  0  0  0  0  0  0
  143.4509  139.5549   88.3240 H   0  0  0  0  0  0  0  0  0  0  0  0
  145.4712  139.1833   89.9805 H   0  0  0  0  0  0  0  0  0  0  0  0
  146.2774  139.1728   92.3410 H   0  0  0  0  0  0  0  0  0  0  0  0
  144.7015  139.7252   94.2053 H   0  0  0  0  0  0  0  0  0  0  0  0
  1  2  2  0
  2  3  1  0
  3  4  1  0
  4  5  1  0
  5  6  1  0
  6  7  1  0
  7  8  1  0
  8  9  1  0
  9 10  1  0
 10 11  1  0
  2 12  1  0
 12 13  2  0
 13 14  1  0
 14 15  2  0
 15 16  1  0
 16 17  2  0
 17 18  1  0
 18 19  1  0
 18 20  2  0
 20 21  1  0
  9  4  1  0
 21 12  1  0
 11  6  1  0
 20 14  1  0
  3 22  1  0
  4 23  1  1
  5 24  1  0
  5 25  1  0
  7 26  1  0
  7 27  1  0
  8 28  1  0
  8 29  1  0
  9 30  1  0
 10 31  1  0
 10 32  1  0
 11 33  1  0
 11 34  1  0
 13 35  1  0
 15 36  1  0
 16 37  1  0
 17 38  1  0
M  END
>  <meeko>  (12)
{"is_sidechain": false}

>  <source_group>  (12)
CHRFAM7A at B face

>  <source_system>  (12)
CHRNA7_encenicline

>  <source_run>  (12)
hybrid_B_face_seed5519_ex32

>  <source_seed>  (12)
5519

>  <vina_pose_rank>  (12)
12

>  <vina_affinity_kcal_mol>  (12)
-5.3689999999999998

>  <vina_rmsd_to_crystal_angstrom>  (12)
5.1740000000000004

$$$$
CHRNA7_encenicline__hybrid_B_face_seed5519_ex32__pose13
     RDKit          3D

 38 41  0  0  0  0  0  0  0  0999 V2000
  148.2860  137.6930   92.2170 O   0  0  0  0  0  0  0  0  0  0  0  0
  148.0230  138.2000   91.1790 C   0  0  0  0  0  0  0  0  0  0  0  0
  146.6620  138.6190   90.9060 N   0  0  0  0  0  0  0  0  0  0  0  0
  145.6150  138.4040   91.9300 C   0  0  1  0  0  0  0  0  0  0  0  0
  145.3970  139.6980   92.7380 C   0  0  0  0  0  0  0  0  0  0  0  0
  144.0730  140.1350   92.6490 N   0  0  0  0  0  0  0  0  0  0  0  0
  143.2140  139.1570   93.1030 C   0  0  0  0  0  0  0  0  0  0  0  0
  143.3490  137.8950   92.3030 C   0  0  0  0  0  0  0  0  0  0  0  0
  144.3520  138.0510   91.2870 C   0  0  0  0  0  0  0  0  0  0  0  0
  143.9570  139.1530   90.4140 C   0  0  0  0  0  0  0  0  0  0  0  0
  143.7620  140.4410   91.3020 C   0  0  0  0  0  0  0  0  0  0  0  0
  149.1280  138.4100   90.1370 C   0  0  0  0  0  0  0  0  0  0  0  0
  149.0220  138.1640   88.8110 C   0  0  0  0  0  0  0  0  0  0  0  0
  150.1470  138.4130   87.9550 C   0  0  0  0  0  0  0  0  0  0  0  0
  150.2010  138.2190   86.6000 C   0  0  0  0  0  0  0  0  0  0  0  0
  151.3730  138.5060   85.9000 C   0  0  0  0  0  0  0  0  0  0  0  0
  152.4990  138.9950   86.5850 C   0  0  0  0  0  0  0  0  0  0  0  0
  152.4500  139.1950   87.9670 C   0  0  0  0  0  0  0  0  0  0  0  0
  153.8800  139.8170   88.8310 Cl  0  0  0  0  0  0  0  0  0  0  0  0
  151.2960  138.9130   88.6600 C   0  0  0  0  0  0  0  0  0  0  0  0
  150.7460  138.9980   90.3900 S   0  0  0  0  0  0  0  0  0  0  0  0
  146.4370  139.0420   90.0470 H   0  0  0  0  0  0  0  0  0  0  0  0
  145.9420  137.5909   92.5948 H   0  0  0  0  0  0  0  0  0  0  0  0
  145.6411  139.5068   93.7934 H   0  0  0  0  0  0  0  0  0  0  0  0
  146.0495  140.4804   92.3232 H   0  0  0  0  0  0  0  0  0  0  0  0
  143.4443  138.9393   94.1564 H   0  0  0  0  0  0  0  0  0  0  0  0
  142.1830  139.5254   92.9968 H   0  0  0  0  0  0  0  0  0  0  0  0
  143.6362  137.0706   92.9723 H   0  0  0  0  0  0  0  0  0  0  0  0
  142.3852  137.6729   91.8217 H   0  0  0  0  0  0  0  0  0  0  0  0
  144.4612  137.1205   90.7106 H   0  0  0  0  0  0  0  0  0  0  0  0
  144.7413  139.3332   89.6641 H   0  0  0  0  0  0  0  0  0  0  0  0
  143.0206  138.9067   89.8920 H   0  0  0  0  0  0  0  0  0  0  0  0
  144.4293  141.2385   90.9433 H   0  0  0  0  0  0  0  0  0  0  0  0
  142.7176  140.7796   91.2338 H   0  0  0  0  0  0  0  0  0  0  0  0
  148.0816  137.7764   88.3923 H   0  0  0  0  0  0  0  0  0  0  0  0
  149.3199  137.8368   86.0638 H   0  0  0  0  0  0  0  0  0  0  0  0
  151.4161  138.3497   84.8120 H   0  0  0  0  0  0  0  0  0  0  0  0
  153.4220  139.2210   86.0310 H   0  0  0  0  0  0  0  0  0  0  0  0
  1  2  2  0
  2  3  1  0
  3  4  1  0
  4  5  1  0
  5  6  1  0
  6  7  1  0
  7  8  1  0
  8  9  1  0
  9 10  1  0
 10 11  1  0
  2 12  1  0
 12 13  2  0
 13 14  1  0
 14 15  2  0
 15 16  1  0
 16 17  2  0
 17 18  1  0
 18 19  1  0
 18 20  2  0
 20 21  1  0
  9  4  1  0
 21 12  1  0
 11  6  1  0
 20 14  1  0
  3 22  1  0
  4 23  1  1
  5 24  1  0
  5 25  1  0
  7 26  1  0
  7 27  1  0
  8 28  1  0
  8 29  1  0
  9 30  1  0
 10 31  1  0
 10 32  1  0
 11 33  1  0
 11 34  1  0
 13 35  1  0
 15 36  1  0
 16 37  1  0
 17 38  1  0
M  END
>  <meeko>  (13)
{"is_sidechain": false}

>  <source_group>  (13)
CHRFAM7A at B face

>  <source_system>  (13)
CHRNA7_encenicline

>  <source_run>  (13)
hybrid_B_face_seed5519_ex32

>  <source_seed>  (13)
5519

>  <vina_pose_rank>  (13)
13

>  <vina_affinity_kcal_mol>  (13)
-5.367

>  <vina_rmsd_to_crystal_angstrom>  (13)
6.6669

$$$$
CHRNA7_encenicline__hybrid_B_face_seed5519_ex32__pose14
     RDKit          3D

 38 41  0  0  0  0  0  0  0  0999 V2000
  148.0740  143.1270   94.8300 O   0  0  0  0  0  0  0  0  0  0  0  0
  147.0570  143.6150   94.4680 C   0  0  0  0  0  0  0  0  0  0  0  0
  147.0650  144.9360   93.8710 N   0  0  0  0  0  0  0  0  0  0  0  0
  148.3470  145.6620   93.7250 C   0  0  1  0  0  0  0  0  0  0  0  0
  148.2580  146.6540   92.5490 C   0  0  0  0  0  0  0  0  0  0  0  0
  148.5030  147.9640   92.9710 N   0  0  0  0  0  0  0  0  0  0  0  0
  149.7460  148.0540   93.5580 C   0  0  0  0  0  0  0  0  0  0  0  0
  149.8570  147.1470   94.7480 C   0  0  0  0  0  0  0  0  0  0  0  0
  148.6330  146.4200   94.9400 C   0  0  0  0  0  0  0  0  0  0  0  0
  147.5540  147.3820   95.1470 C   0  0  0  0  0  0  0  0  0  0  0  0
  147.5150  148.3550   93.9080 C   0  0  0  0  0  0  0  0  0  0  0  0
  145.7440  142.8400   94.6310 C   0  0  0  0  0  0  0  0  0  0  0  0
  144.6910  143.2200   95.3900 C   0  0  0  0  0  0  0  0  0  0  0  0
  143.5230  142.3880   95.4430 C   0  0  0  0  0  0  0  0  0  0  0  0
  142.3790  142.6300   96.1570 C   0  0  0  0  0  0  0  0  0  0  0  0
  141.3210  141.7210   96.1100 C   0  0  0  0  0  0  0  0  0  0  0  0
  141.4280  140.5580   95.3290 C   0  0  0  0  0  0  0  0  0  0  0  0
  142.5920  140.3060   94.5960 C   0  0  0  0  0  0  0  0  0  0  0  0
  142.7220  138.8300   93.6050 Cl  0  0  0  0  0  0  0  0  0  0  0  0
  143.6360  141.1990   94.6420 C   0  0  0  0  0  0  0  0  0  0  0  0
  145.2920  141.3250   93.9030 S   0  0  0  0  0  0  0  0  0  0  0  0
  146.2240  145.3480   93.5660 H   0  0  0  0  0  0  0  0  0  0  0  0
  149.1437  144.9260   93.5416 H   0  0  0  0  0  0  0  0  0  0  0  0
  149.0034  146.3769   91.7890 H   0  0  0  0  0  0  0  0  0  0  0  0
  147.2414  146.6077   92.1314 H   0  0  0  0  0  0  0  0  0  0  0  0
  150.5114  147.7715   92.8202 H   0  0  0  0  0  0  0  0  0  0  0  0
  149.8941  149.0898   93.8975 H   0  0  0  0  0  0  0  0  0  0  0  0
  150.6796  146.4351   94.5855 H   0  0  0  0  0  0  0  0  0  0  0  0
  150.0545  147.7554   95.6429 H   0  0  0  0  0  0  0  0  0  0  0  0
  148.7196  145.7435   95.8031 H   0  0  0  0  0  0  0  0  0  0  0  0
  146.5942  146.8516   95.2339 H   0  0  0  0  0  0  0  0  0  0  0  0
  147.7265  147.9522   96.0717 H   0  0  0  0  0  0  0  0  0  0  0  0
  146.5226  148.3083   93.4358 H   0  0  0  0  0  0  0  0  0  0  0  0
  147.7129  149.3840   94.2427 H   0  0  0  0  0  0  0  0  0  0  0  0
  144.7296  144.1589   95.9618 H   0  0  0  0  0  0  0  0  0  0  0  0
  142.2943  143.5411   96.7675 H   0  0  0  0  0  0  0  0  0  0  0  0
  140.4032  141.9151   96.6845 H   0  0  0  0  0  0  0  0  0  0  0  0
  140.5929  139.8429   95.2940 H   0  0  0  0  0  0  0  0  0  0  0  0
  1  2  2  0
  2  3  1  0
  3  4  1  0
  4  5  1  0
  5  6  1  0
  6  7  1  0
  7  8  1  0
  8  9  1  0
  9 10  1  0
 10 11  1  0
  2 12  1  0
 12 13  2  0
 13 14  1  0
 14 15  2  0
 15 16  1  0
 16 17  2  0
 17 18  1  0
 18 19  1  0
 18 20  2  0
 20 21  1  0
  9  4  1  0
 21 12  1  0
 11  6  1  0
 20 14  1  0
  3 22  1  0
  4 23  1  6
  5 24  1  0
  5 25  1  0
  7 26  1  0
  7 27  1  0
  8 28  1  0
  8 29  1  0
  9 30  1  0
 10 31  1  0
 10 32  1  0
 11 33  1  0
 11 34  1  0
 13 35  1  0
 15 36  1  0
 16 37  1  0
 17 38  1  0
M  END
>  <meeko>  (14)
{"is_sidechain": false}

>  <source_group>  (14)
CHRFAM7A at B face

>  <source_system>  (14)
CHRNA7_encenicline

>  <source_run>  (14)
hybrid_B_face_seed5519_ex32

>  <source_seed>  (14)
5519

>  <vina_pose_rank>  (14)
14

>  <vina_affinity_kcal_mol>  (14)
-5.3159999999999998

>  <vina_rmsd_to_crystal_angstrom>  (14)
9.6439000000000004

$$$$
CHRNA7_encenicline__hybrid_B_face_seed5519_ex32__pose15
     RDKit          3D

 38 41  0  0  0  0  0  0  0  0999 V2000
  144.8060  145.2930   98.4450 O   0  0  0  0  0  0  0  0  0  0  0  0
  144.8570  144.5910   97.4930 C   0  0  0  0  0  0  0  0  0  0  0  0
  146.0320  144.6120   96.6430 N   0  0  0  0  0  0  0  0  0  0  0  0
  147.1550  145.5180   96.9760 C   0  0  1  0  0  0  0  0  0  0  0  0
  148.4730  144.9490   96.4150 C   0  0  0  0  0  0  0  0  0  0  0  0
  149.0790  145.8480   95.5340 N   0  0  0  0  0  0  0  0  0  0  0  0
  149.3260  147.0470   96.1680 C   0  0  0  0  0  0  0  0  0  0  0  0
  148.0600  147.6680   96.6780 C   0  0  0  0  0  0  0  0  0  0  0  0
  146.9330  146.8300   96.3760 C   0  0  0  0  0  0  0  0  0  0  0  0
  146.8570  146.6660   94.9260 C   0  0  0  0  0  0  0  0  0  0  0  0
  148.2280  146.0740   94.4240 C   0  0  0  0  0  0  0  0  0  0  0  0
  143.6800  143.6630   97.1730 C   0  0  0  0  0  0  0  0  0  0  0  0
  143.6880  142.6580   96.2660 C   0  0  0  0  0  0  0  0  0  0  0  0
  142.5040  141.8690   96.0770 C   0  0  0  0  0  0  0  0  0  0  0  0
  142.3510  140.8220   95.2060 C   0  0  0  0  0  0  0  0  0  0  0  0
  141.1320  140.1480   95.1330 C   0  0  0  0  0  0  0  0  0  0  0  0
  140.0600  140.5420   95.9530 C   0  0  0  0  0  0  0  0  0  0  0  0
  140.2110  141.6090   96.8440 C   0  0  0  0  0  0  0  0  0  0  0  0
  138.8490  142.1030   97.8830 Cl  0  0  0  0  0  0  0  0  0  0  0  0
  141.4110  142.2750   96.9180 C   0  0  0  0  0  0  0  0  0  0  0  0
  142.0860  143.6670   97.8730 S   0  0  0  0  0  0  0  0  0  0  0  0
  146.0820  144.0290   95.8520 H   0  0  0  0  0  0  0  0  0  0  0  0
  147.2156  145.6079   98.0706 H   0  0  0  0  0  0  0  0  0  0  0  0
  149.1602  144.7468   97.2498 H   0  0  0  0  0  0  0  0  0  0  0  0
  148.2459  144.0236   95.8655 H   0  0  0  0  0  0  0  0  0  0  0  0
  150.0046  146.8704   97.0156 H   0  0  0  0  0  0  0  0  0  0  0  0
  149.7805  147.7357   95.4406 H   0  0  0  0  0  0  0  0  0  0  0  0
  148.1335  147.7974   97.7679 H   0  0  0  0  0  0  0  0  0  0  0  0
  147.9197  148.6436   96.1896 H   0  0  0  0  0  0  0  0  0  0  0  0
  146.0065  147.2780   96.7646 H   0  0  0  0  0  0  0  0  0  0  0  0
  146.0385  145.9765   94.6718 H   0  0  0  0  0  0  0  0  0  0  0  0
  146.6630  147.6356   94.4440 H   0  0  0  0  0  0  0  0  0  0  0  0
  148.0474  145.1234   93.9008 H   0  0  0  0  0  0  0  0  0  0  0  0
  148.7050  146.7866   93.7351 H   0  0  0  0  0  0  0  0  0  0  0  0
  144.5942  142.4479   95.6789 H   0  0  0  0  0  0  0  0  0  0  0  0
  143.1895  140.5132   94.5645 H   0  0  0  0  0  0  0  0  0  0  0  0
  141.0093  139.3079   94.4336 H   0  0  0  0  0  0  0  0  0  0  0  0
  139.0995  140.0092   95.8934 H   0  0  0  0  0  0  0  0  0  0  0  0
  1  2  2  0
  2  3  1  0
  3  4  1  0
  4  5  1  0
  5  6  1  0
  6  7  1  0
  7  8  1  0
  8  9  1  0
  9 10  1  0
 10 11  1  0
  2 12  1  0
 12 13  2  0
 13 14  1  0
 14 15  2  0
 15 16  1  0
 16 17  2  0
 17 18  1  0
 18 19  1  0
 18 20  2  0
 20 21  1  0
  9  4  1  0
 21 12  1  0
 11  6  1  0
 20 14  1  0
  3 22  1  0
  4 23  1  1
  5 24  1  0
  5 25  1  0
  7 26  1  0
  7 27  1  0
  8 28  1  0
  8 29  1  0
  9 30  1  0
 10 31  1  0
 10 32  1  0
 11 33  1  0
 11 34  1  0
 13 35  1  0
 15 36  1  0
 16 37  1  0
 17 38  1  0
M  END
>  <meeko>  (15)
{"is_sidechain": false}

>  <source_group>  (15)
CHRFAM7A at B face

>  <source_system>  (15)
CHRNA7_encenicline

>  <source_run>  (15)
hybrid_B_face_seed5519_ex32

>  <source_seed>  (15)
5519

>  <vina_pose_rank>  (15)
15

>  <vina_affinity_kcal_mol>  (15)
-5.3019999999999996

>  <vina_rmsd_to_crystal_angstrom>  (15)
10.6241

$$$$
CHRNA7_encenicline__hybrid_B_face_seed5519_ex32__pose16
     RDKit          3D

 38 41  0  0  0  0  0  0  0  0999 V2000
  147.9710  138.4270   89.4740 O   0  0  0  0  0  0  0  0  0  0  0  0
  147.7450  138.2690   90.6260 C   0  0  0  0  0  0  0  0  0  0  0  0
  148.7450  137.6570   91.4790 N   0  0  0  0  0  0  0  0  0  0  0  0
  150.0390  137.2330   90.8960 C   0  0  1  0  0  0  0  0  0  0  0  0
  151.0960  138.3350   91.1060 C   0  0  0  0  0  0  0  0  0  0  0  0
  152.1920  137.8530   91.8260 N   0  0  0  0  0  0  0  0  0  0  0  0
  152.7640  136.7840   91.1710 C   0  0  0  0  0  0  0  0  0  0  0  0
  151.7850  135.6610   90.9980 C   0  0  0  0  0  0  0  0  0  0  0  0
  150.5090  136.0180   91.5540 C   0  0  0  0  0  0  0  0  0  0  0  0
  150.6900  136.3050   92.9740 C   0  0  0  0  0  0  0  0  0  0  0  0
  151.7730  137.4420   93.1150 C   0  0  0  0  0  0  0  0  0  0  0  0
  146.3980  138.7170   91.2020 C   0  0  0  0  0  0  0  0  0  0  0  0
  146.1160  138.8870   92.5150 C   0  0  0  0  0  0  0  0  0  0  0  0
  144.8030  139.3160   92.9050 C   0  0  0  0  0  0  0  0  0  0  0  0
  144.3610  139.5350   94.1830 C   0  0  0  0  0  0  0  0  0  0  0  0
  143.0480  139.9500   94.4060 C   0  0  0  0  0  0  0  0  0  0  0  0
  142.1780  140.1440   93.3200 C   0  0  0  0  0  0  0  0  0  0  0  0
  142.6230  139.9240   92.0130 C   0  0  0  0  0  0  0  0  0  0  0  0
  141.5150  140.1740   90.6380 Cl  0  0  0  0  0  0  0  0  0  0  0  0
  143.9160  139.5140   91.7900 C   0  0  0  0  0  0  0  0  0  0  0  0
  144.9360  139.1080   90.3410 S   0  0  0  0  0  0  0  0  0  0  0  0
  148.5660  137.5240   92.4370 H   0  0  0  0  0  0  0  0  0  0  0  0
  149.8920  137.0482   89.8217 H   0  0  0  0  0  0  0  0  0  0  0  0
  151.4407  138.6932   90.1248 H   0  0  0  0  0  0  0  0  0  0  0  0
  150.6362  139.1542   91.6783 H   0  0  0  0  0  0  0  0  0  0  0  0
  153.1087  137.1142   90.1800 H   0  0  0  0  0  0  0  0  0  0  0  0
  153.6071  136.4183   91.7755 H   0  0  0  0  0  0  0  0  0  0  0  0
  151.6657  135.4462   89.9258 H   0  0  0  0  0  0  0  0  0  0  0  0
  152.1660  134.7719   91.5218 H   0  0  0  0  0  0  0  0  0  0  0  0
  149.7865  135.2006   91.4128 H   0  0  0  0  0  0  0  0  0  0  0  0
  149.7379  136.6421   93.4097 H   0  0  0  0  0  0  0  0  0  0  0  0
  151.0197  135.3996   93.5047 H   0  0  0  0  0  0  0  0  0  0  0  0
  151.3383  138.2989   93.6505 H   0  0  0  0  0  0  0  0  0  0  0  0
  152.6369  137.0596   93.6784 H   0  0  0  0  0  0  0  0  0  0  0  0
  146.8867  138.6979   93.2767 H   0  0  0  0  0  0  0  0  0  0  0  0
  145.0417  139.3836   95.0337 H   0  0  0  0  0  0  0  0  0  0  0  0
  142.6937  140.1254   95.4325 H   0  0  0  0  0  0  0  0  0  0  0  0
  141.1428  140.4702   93.4987 H   0  0  0  0  0  0  0  0  0  0  0  0
  1  2  2  0
  2  3  1  0
  3  4  1  0
  4  5  1  0
  5  6  1  0
  6  7  1  0
  7  8  1  0
  8  9  1  0
  9 10  1  0
 10 11  1  0
  2 12  1  0
 12 13  2  0
 13 14  1  0
 14 15  2  0
 15 16  1  0
 16 17  2  0
 17 18  1  0
 18 19  1  0
 18 20  2  0
 20 21  1  0
  9  4  1  0
 21 12  1  0
 11  6  1  0
 20 14  1  0
  3 22  1  0
  4 23  1  6
  5 24  1  0
  5 25  1  0
  7 26  1  0
  7 27  1  0
  8 28  1  0
  8 29  1  0
  9 30  1  0
 10 31  1  0
 10 32  1  0
 11 33  1  0
 11 34  1  0
 13 35  1  0
 15 36  1  0
 16 37  1  0
 17 38  1  0
M  END
>  <meeko>  (16)
{"is_sidechain": false}

>  <source_group>  (16)
CHRFAM7A at B face

>  <source_system>  (16)
CHRNA7_encenicline

>  <source_run>  (16)
hybrid_B_face_seed5519_ex32

>  <source_seed>  (16)
5519

>  <vina_pose_rank>  (16)
16

>  <vina_affinity_kcal_mol>  (16)
-5.2290000000000001

>  <vina_rmsd_to_crystal_angstrom>  (16)
9.0350999999999999

$$$$
CHRNA7_encenicline__hybrid_B_face_seed5519_ex32__pose17
     RDKit          3D

 38 41  0  0  0  0  0  0  0  0999 V2000
  145.3010  144.7420   97.4280 O   0  0  0  0  0  0  0  0  0  0  0  0
  145.2460  144.1250   96.4180 C   0  0  0  0  0  0  0  0  0  0  0  0
  146.2620  144.3170   95.4010 N   0  0  0  0  0  0  0  0  0  0  0  0
  147.3550  145.2870   95.6380 C   0  0  1  0  0  0  0  0  0  0  0  0
  148.6850  144.5370   95.8540 C   0  0  0  0  0  0  0  0  0  0  0  0
  149.6440  144.9260   94.9150 N   0  0  0  0  0  0  0  0  0  0  0  0
  149.8630  146.2840   94.9880 C   0  0  0  0  0  0  0  0  0  0  0  0
  148.6050  147.0570   94.7230 C   0  0  0  0  0  0  0  0  0  0  0  0
  147.5080  146.1610   94.4790 C   0  0  0  0  0  0  0  0  0  0  0  0
  147.8370  145.3350   93.3200 C   0  0  0  0  0  0  0  0  0  0  0  0
  149.1970  144.5930   93.6130 C   0  0  0  0  0  0  0  0  0  0  0  0
  144.1030  143.1280   96.1990 C   0  0  0  0  0  0  0  0  0  0  0  0
  142.8390  143.2590   96.6640 C   0  0  0  0  0  0  0  0  0  0  0  0
  141.8710  142.2390   96.3750 C   0  0  0  0  0  0  0  0  0  0  0  0
  140.5590  142.2230   96.7680 C   0  0  0  0  0  0  0  0  0  0  0  0
  139.7360  141.1550   96.4090 C   0  0  0  0  0  0  0  0  0  0  0  0
  140.2530  140.0950   95.6460 C   0  0  0  0  0  0  0  0  0  0  0  0
  141.5920  140.1060   95.2410 C   0  0  0  0  0  0  0  0  0  0  0  0
  142.2420  138.7590   94.2700 Cl  0  0  0  0  0  0  0  0  0  0  0  0
  142.4050  141.1560   95.5930 C   0  0  0  0  0  0  0  0  0  0  0  0
  144.1410  141.6230   95.3260 S   0  0  0  0  0  0  0  0  0  0  0  0
  146.2250  143.8070   94.5600 H   0  0  0  0  0  0  0  0  0  0  0  0
  147.1043  145.8812   96.5291 H   0  0  0  0  0  0  0  0  0  0  0  0
  149.0614  144.7580   96.8637 H   0  0  0  0  0  0  0  0  0  0  0  0
  148.4997  143.4592   95.7358 H   0  0  0  0  0  0  0  0  0  0  0  0
  150.2310  146.5335   95.9942 H   0  0  0  0  0  0  0  0  0  0  0  0
  150.6042  146.5565   94.2222 H   0  0  0  0  0  0  0  0  0  0  0  0
  148.3737  147.6835   95.5971 H   0  0  0  0  0  0  0  0  0  0  0  0
  148.7546  147.6880   93.8345 H   0  0  0  0  0  0  0  0  0  0  0  0
  146.5822  146.7276   94.3005 H   0  0  0  0  0  0  0  0  0  0  0  0
  147.0393  144.5969   93.1505 H   0  0  0  0  0  0  0  0  0  0  0  0
  147.9327  145.9624   92.4215 H   0  0  0  0  0  0  0  0  0  0  0  0
  149.0440  143.5059   93.5444 H   0  0  0  0  0  0  0  0  0  0  0  0
  149.9513  144.9037   92.8751 H   0  0  0  0  0  0  0  0  0  0  0  0
  142.5555  144.1399   97.2586 H   0  0  0  0  0  0  0  0  0  0  0  0
  140.1541  143.0522   97.3667 H   0  0  0  0  0  0  0  0  0  0  0  0
  138.6820  141.1431   96.7236 H   0  0  0  0  0  0  0  0  0  0  0  0
  139.6027  139.2532   95.3659 H   0  0  0  0  0  0  0  0  0  0  0  0
  1  2  2  0
  2  3  1  0
  3  4  1  0
  4  5  1  0
  5  6  1  0
  6  7  1  0
  7  8  1  0
  8  9  1  0
  9 10  1  0
 10 11  1  0
  2 12  1  0
 12 13  2  0
 13 14  1  0
 14 15  2  0
 15 16  1  0
 16 17  2  0
 17 18  1  0
 18 19  1  0
 18 20  2  0
 20 21  1  0
  9  4  1  0
 21 12  1  0
 11  6  1  0
 20 14  1  0
  3 22  1  0
  4 23  1  1
  5 24  1  0
  5 25  1  0
  7 26  1  0
  7 27  1  0
  8 28  1  0
  8 29  1  0
  9 30  1  0
 10 31  1  0
 10 32  1  0
 11 33  1  0
 11 34  1  0
 13 35  1  0
 15 36  1  0
 16 37  1  0
 17 38  1  0
M  END
>  <meeko>  (17)
{"is_sidechain": false}

>  <source_group>  (17)
CHRFAM7A at B face

>  <source_system>  (17)
CHRNA7_encenicline

>  <source_run>  (17)
hybrid_B_face_seed5519_ex32

>  <source_seed>  (17)
5519

>  <vina_pose_rank>  (17)
17

>  <vina_affinity_kcal_mol>  (17)
-5.2110000000000003

>  <vina_rmsd_to_crystal_angstrom>  (17)
9.8465000000000007

$$$$
CHRNA7_encenicline__hybrid_B_face_seed5519_ex32__pose18
     RDKit          3D

 38 41  0  0  0  0  0  0  0  0999 V2000
  150.0780  135.1060   89.7990 O   0  0  0  0  0  0  0  0  0  0  0  0
  150.1080  136.2810   89.6500 C   0  0  0  0  0  0  0  0  0  0  0  0
  149.6060  136.8640   88.4210 N   0  0  0  0  0  0  0  0  0  0  0  0
  149.0640  135.9810   87.3640 C   0  0  1  0  0  0  0  0  0  0  0  0
  147.7800  136.5960   86.7730 C   0  0  0  0  0  0  0  0  0  0  0  0
  147.9050  136.8040   85.3970 N   0  0  0  0  0  0  0  0  0  0  0  0
  148.1860  135.6170   84.7560 C   0  0  0  0  0  0  0  0  0  0  0  0
  149.4630  135.0120   85.2590 C   0  0  0  0  0  0  0  0  0  0  0  0
  150.0380  135.8350   86.2860 C   0  0  0  0  0  0  0  0  0  0  0  0
  150.3020  137.1570   85.7230 C   0  0  0  0  0  0  0  0  0  0  0  0
  148.9500  137.7280   85.1480 C   0  0  0  0  0  0  0  0  0  0  0  0
  150.6750  137.1710   90.7620 C   0  0  0  0  0  0  0  0  0  0  0  0
  151.2510  136.7380   91.9070 C   0  0  0  0  0  0  0  0  0  0  0  0
  151.7390  137.6960   92.8580 C   0  0  0  0  0  0  0  0  0  0  0  0
  152.3450  137.4220   94.0550 C   0  0  0  0  0  0  0  0  0  0  0  0
  152.7670  138.4660   94.8790 C   0  0  0  0  0  0  0  0  0  0  0  0
  152.5720  139.7990   94.4790 C   0  0  0  0  0  0  0  0  0  0  0  0
  151.9550  140.0850   93.2580 C   0  0  0  0  0  0  0  0  0  0  0  0
  151.7120  141.7790   92.7550 Cl  0  0  0  0  0  0  0  0  0  0  0  0
  151.5380  139.0590   92.4450 C   0  0  0  0  0  0  0  0  0  0  0  0
  150.7190  138.9100   90.8280 S   0  0  0  0  0  0  0  0  0  0  0  0
  149.6260  137.8400   88.2910 H   0  0  0  0  0  0  0  0  0  0  0  0
  148.8446  134.9999   87.8105 H   0  0  0  0  0  0  0  0  0  0  0  0
  146.9376  135.9131   86.9573 H   0  0  0  0  0  0  0  0  0  0  0  0
  147.6052  137.5681   87.2572 H   0  0  0  0  0  0  0  0  0  0  0  0
  147.3614  134.9108   84.9330 H   0  0  0  0  0  0  0  0  0  0  0  0
  148.3002  135.8226   83.6814 H   0  0  0  0  0  0  0  0  0  0  0  0
  149.2534  134.0134   85.6701 H   0  0  0  0  0  0  0  0  0  0  0  0
  150.1744  134.9359   84.4235 H   0  0  0  0  0  0  0  0  0  0  0  0
  150.9663  135.3829   86.6652 H   0  0  0  0  0  0  0  0  0  0  0  0
  150.6846  137.8261   86.5078 H   0  0  0  0  0  0  0  0  0  0  0  0
  151.0541  137.0856   84.9235 H   0  0  0  0  0  0  0  0  0  0  0  0
  148.7180  138.6851   85.6380 H   0  0  0  0  0  0  0  0  0  0  0  0
  149.0497  137.8865   84.0641 H   0  0  0  0  0  0  0  0  0  0  0  0
  151.3446  135.6605   92.1075 H   0  0  0  0  0  0  0  0  0  0  0  0
  152.4992  136.3785   94.3671 H   0  0  0  0  0  0  0  0  0  0  0  0
  153.2521  138.2457   95.8413 H   0  0  0  0  0  0  0  0  0  0  0  0
  152.9063  140.6206   95.1295 H   0  0  0  0  0  0  0  0  0  0  0  0
  1  2  2  0
  2  3  1  0
  3  4  1  0
  4  5  1  0
  5  6  1  0
  6  7  1  0
  7  8  1  0
  8  9  1  0
  9 10  1  0
 10 11  1  0
  2 12  1  0
 12 13  2  0
 13 14  1  0
 14 15  2  0
 15 16  1  0
 16 17  2  0
 17 18  1  0
 18 19  1  0
 18 20  2  0
 20 21  1  0
  9  4  1  0
 21 12  1  0
 11  6  1  0
 20 14  1  0
  3 22  1  0
  4 23  1  1
  5 24  1  0
  5 25  1  0
  7 26  1  0
  7 27  1  0
  8 28  1  0
  8 29  1  0
  9 30  1  0
 10 31  1  0
 10 32  1  0
 11 33  1  0
 11 34  1  0
 13 35  1  0
 15 36  1  0
 16 37  1  0
 17 38  1  0
M  END
>  <meeko>  (18)
{"is_sidechain": false}

>  <source_group>  (18)
CHRFAM7A at B face

>  <source_system>  (18)
CHRNA7_encenicline

>  <source_run>  (18)
hybrid_B_face_seed5519_ex32

>  <source_seed>  (18)
5519

>  <vina_pose_rank>  (18)
18

>  <vina_affinity_kcal_mol>  (18)
-5.0620000000000003

>  <vina_rmsd_to_crystal_angstrom>  (18)
9.1128

$$$$
CHRNA7_encenicline__hybrid_B_face_seed5519_ex32__pose19
     RDKit          3D

 38 41  0  0  0  0  0  0  0  0999 V2000
  150.0240  135.1190   89.8600 O   0  0  0  0  0  0  0  0  0  0  0  0
  150.1330  136.2820   89.6650 C   0  0  0  0  0  0  0  0  0  0  0  0
  149.6970  136.8450   88.4020 N   0  0  0  0  0  0  0  0  0  0  0  0
  149.1230  135.9550   87.3670 C   0  0  1  0  0  0  0  0  0  0  0  0
  147.8290  136.5720   86.8020 C   0  0  0  0  0  0  0  0  0  0  0  0
  147.9210  136.7660   85.4220 N   0  0  0  0  0  0  0  0  0  0  0  0
  148.1780  135.5710   84.7860 C   0  0  0  0  0  0  0  0  0  0  0  0
  149.4640  134.9630   85.2630 C   0  0  0  0  0  0  0  0  0  0  0  0
  150.0690  135.7920   86.2670 C   0  0  0  0  0  0  0  0  0  0  0  0
  150.3270  137.1070   85.6850 C   0  0  0  0  0  0  0  0  0  0  0  0
  148.9650  137.6810   85.1380 C   0  0  0  0  0  0  0  0  0  0  0  0
  150.7300  137.1800   90.7540 C   0  0  0  0  0  0  0  0  0  0  0  0
  150.9130  138.5180   90.6640 C   0  0  0  0  0  0  0  0  0  0  0  0
  151.4850  139.2280   91.7730 C   0  0  0  0  0  0  0  0  0  0  0  0
  151.7330  140.5740   91.8410 C   0  0  0  0  0  0  0  0  0  0  0  0
  152.2980  141.1220   92.9930 C   0  0  0  0  0  0  0  0  0  0  0  0
  152.6140  140.2940   94.0830 C   0  0  0  0  0  0  0  0  0  0  0  0
  152.3630  138.9200   94.0200 C   0  0  0  0  0  0  0  0  0  0  0  0
  152.7640  137.8750   95.4080 Cl  0  0  0  0  0  0  0  0  0  0  0  0
  151.8060  138.3770   92.8870 C   0  0  0  0  0  0  0  0  0  0  0  0
  151.3060  136.7200   92.3310 S   0  0  0  0  0  0  0  0  0  0  0  0
  149.7810  137.8110   88.2340 H   0  0  0  0  0  0  0  0  0  0  0  0
  148.9084  134.9799   87.8286 H   0  0  0  0  0  0  0  0  0  0  0  0
  146.9874  135.8961   87.0137 H   0  0  0  0  0  0  0  0  0  0  0  0
  147.6721  137.5498   87.2809 H   0  0  0  0  0  0  0  0  0  0  0  0
  147.3538  134.8719   84.9910 H   0  0  0  0  0  0  0  0  0  0  0  0
  148.2658  135.7649   83.7068 H   0  0  0  0  0  0  0  0  0  0  0  0
  149.2590  133.9697   85.6888 H   0  0  0  0  0  0  0  0  0  0  0  0
  150.1539  134.8747   84.4108 H   0  0  0  0  0  0  0  0  0  0  0  0
  151.0036  135.3374   86.6273 H   0  0  0  0  0  0  0  0  0  0  0  0
  150.7329  137.7810   86.4537 H   0  0  0  0  0  0  0  0  0  0  0  0
  151.0587  137.0232   84.8680 H   0  0  0  0  0  0  0  0  0  0  0  0
  148.7511  138.6443   85.6240 H   0  0  0  0  0  0  0  0  0  0  0  0
  149.0387  137.8285   84.0504 H   0  0  0  0  0  0  0  0  0  0  0  0
  150.6259  139.0568   89.7490 H   0  0  0  0  0  0  0  0  0  0  0  0
  151.4866  141.2225   90.9873 H   0  0  0  0  0  0  0  0  0  0  0  0
  152.4961  142.2026   93.0478 H   0  0  0  0  0  0  0  0  0  0  0  0
  153.0606  140.7284   94.9896 H   0  0  0  0  0  0  0  0  0  0  0  0
  1  2  2  0
  2  3  1  0
  3  4  1  0
  4  5  1  0
  5  6  1  0
  6  7  1  0
  7  8  1  0
  8  9  1  0
  9 10  1  0
 10 11  1  0
  2 12  1  0
 12 13  2  0
 13 14  1  0
 14 15  2  0
 15 16  1  0
 16 17  2  0
 17 18  1  0
 18 19  1  0
 18 20  2  0
 20 21  1  0
  9  4  1  0
 21 12  1  0
 11  6  1  0
 20 14  1  0
  3 22  1  0
  4 23  1  1
  5 24  1  0
  5 25  1  0
  7 26  1  0
  7 27  1  0
  8 28  1  0
  8 29  1  0
  9 30  1  0
 10 31  1  0
 10 32  1  0
 11 33  1  0
 11 34  1  0
 13 35  1  0
 15 36  1  0
 16 37  1  0
 17 38  1  0
M  END
>  <meeko>  (19)
{"is_sidechain": false}

>  <source_group>  (19)
CHRFAM7A at B face

>  <source_system>  (19)
CHRNA7_encenicline

>  <source_run>  (19)
hybrid_B_face_seed5519_ex32

>  <source_seed>  (19)
5519

>  <vina_pose_rank>  (19)
19

>  <vina_affinity_kcal_mol>  (19)
-4.9710000000000001

>  <vina_rmsd_to_crystal_angstrom>  (19)
9.2187999999999999

$$$$
