CHRNA7_encenicline__hybrid_B_face_seed5519_ex32__pose01


 22 25  0  0  0  0  0  0  0  0999 V2000
  143.5710  139.3480   95.6920 O   0  0  0  0  0  0  0  0  0  0  0  0
  142.6270  139.7380   95.0930 C   0  0  0  0  0  0  0  0  0  0  0  0
  142.5300  139.4990   93.6660 N   0  0  0  0  0  0  0  0  0  0  0  0
  141.7470  139.8180   93.1620 H   0  0  0  0  0  0  0  0  0  0  0  0
  141.5150  140.4880   95.8350 C   0  0  0  0  0  0  0  0  0  0  0  0
  140.2310  140.0800   95.9580 C   0  0  0  0  0  0  0  0  0  0  0  0
  139.3000  140.8920   96.6880 C   0  0  0  0  0  0  0  0  0  0  0  0
  137.9740  140.6220   96.9050 C   0  0  0  0  0  0  0  0  0  0  0  0
  137.1900  141.5130   97.6380 C   0  0  0  0  0  0  0  0  0  0  0  0
  137.7600  142.6890   98.1540 C   0  0  0  0  0  0  0  0  0  0  0  0
  139.1120  142.9710   97.9380 C   0  0  0  0  0  0  0  0  0  0  0  0
  139.8300  144.4630   98.5980 Cl  0  0  0  0  0  0  0  0  0  0  0  0
  139.8870  142.0940   97.2160 C   0  0  0  0  0  0  0  0  0  0  0  0
  141.6220  142.0060   96.6800 S   0  0  0  0  0  0  0  0  0  0  0  0
  143.6180  138.7720   92.9740 C   0  0  0  0  0  0  0  0  0  0  0  0
  143.1890  138.4320   91.5320 C   0  0  0  0  0  0  0  0  0  0  0  0
  144.0700  138.9850   90.5990 N   0  0  0  0  0  0  0  0  0  0  0  0
  145.3510  138.5270   90.8190 C   0  0  0  0  0  0  0  0  0  0  0  0
  145.8330  138.8890   92.1930 C   0  0  0  0  0  0  0  0  0  0  0  0
  144.8150  139.6050   92.9090 C   0  0  0  0  0  0  0  0  0  0  0  0
  144.4910  140.8170   92.1610 C   0  0  0  0  0  0  0  0  0  0  0  0
  144.0530  140.3970   90.7060 C   0  0  0  0  0  0  0  0  0  0  0  0
  1  2  2  0
  2  3  1  0
  3 15  1  0
 15 16  1  0
 16 17  1  0
 17 18  1  0
 18 19  1  0
 19 20  1  0
 20 21  1  0
 21 22  1  0
  2  5  1  0
  5  6  2  0
  6  7  1  0
  7  8  2  0
  8  9  1  0
  9 10  2  0
 10 11  1  0
 11 12  1  0
 11 13  2  0
 13 14  1  0
 20 15  1  0
 14  5  1  0
 22 17  1  0
 13  7  1  0
  3  4  1  0
M  END
> <meeko>
{"is_sidechain": false}

> <source_group>
CHRFAM7A at B face

> <source_system>
CHRNA7_encenicline

> <source_run>
hybrid_B_face_seed5519_ex32

> <source_seed>
5519

> <vina_pose_rank>
1

> <vina_affinity_kcal_mol>
-6.8789999999999996

> <vina_rmsd_to_crystal_angstrom>
8.3819999999999997

> <minimizedAffinity>
-6.87915

> <CNNscore>
0.0652563125

> <CNNaffinity>
4.0370144844

> <CNN_VS>
0.2634406686

> <CNNaffinity_variance>
1.8991636038

$$$$
CHRNA7_encenicline__hybrid_B_face_seed5519_ex32__pose02


 22 25  0  0  0  0  0  0  0  0999 V2000
  146.4260  144.6340   93.6450 O   0  0  0  0  0  0  0  0  0  0  0  0
  146.5700  143.6290   94.2540 C   0  0  0  0  0  0  0  0  0  0  0  0
  147.8610  143.3200   94.8370 N   0  0  0  0  0  0  0  0  0  0  0  0
  147.9890  142.4880   95.3480 H   0  0  0  0  0  0  0  0  0  0  0  0
  145.3880  142.6680   94.4230 C   0  0  0  0  0  0  0  0  0  0  0  0
  144.3270  142.8550   95.2420 C   0  0  0  0  0  0  0  0  0  0  0  0
  143.2910  141.8640   95.2920 C   0  0  0  0  0  0  0  0  0  0  0  0
  142.1580  141.9040   96.0620 C   0  0  0  0  0  0  0  0  0  0  0  0
  141.2370  140.8570   96.0040 C   0  0  0  0  0  0  0  0  0  0  0  0
  141.4710  139.7620   95.1550 C   0  0  0  0  0  0  0  0  0  0  0  0
  142.6250  139.7150   94.3670 C   0  0  0  0  0  0  0  0  0  0  0  0
  142.9150  138.3230   93.2910 Cl  0  0  0  0  0  0  0  0  0  0  0  0
  143.5340  140.7440   94.4220 C   0  0  0  0  0  0  0  0  0  0  0  0
  145.1210  141.1420   93.6300 S   0  0  0  0  0  0  0  0  0  0  0  0
  148.9870  144.2650   94.6590 C   0  0  0  0  0  0  0  0  0  0  0  0
  149.3770  144.8800   96.0180 C   0  0  0  0  0  0  0  0  0  0  0  0
  150.7150  144.6180   96.3260 N   0  0  0  0  0  0  0  0  0  0  0  0
  151.5400  145.1150   95.3400 C   0  0  0  0  0  0  0  0  0  0  0  0
  151.2340  144.4980   94.0080 C   0  0  0  0  0  0  0  0  0  0  0  0
  150.1500  143.5640   94.1250 C   0  0  0  0  0  0  0  0  0  0  0  0
  150.5370  142.5250   95.0760 C   0  0  0  0  0  0  0  0  0  0  0  0
  150.9130  143.2200   96.4400 C   0  0  0  0  0  0  0  0  0  0  0  0
  1  2  2  0
  2  3  1  0
  3 15  1  0
 15 16  1  0
 16 17  1  0
 17 18  1  0
 18 19  1  0
 19 20  1  0
 20 21  1  0
 21 22  1  0
  2  5  1  0
  5  6  2  0
  6  7  1  0
  7  8  2  0
  8  9  1  0
  9 10  2  0
 10 11  1  0
 11 12  1  0
 11 13  2  0
 13 14  1  0
 20 15  1  0
 14  5  1  0
 22 17  1  0
 13  7  1  0
  3  4  1  0
M  END
> <meeko>
{"is_sidechain": false}

> <source_group>
CHRFAM7A at B face

> <source_system>
CHRNA7_encenicline

> <source_run>
hybrid_B_face_seed5519_ex32

> <source_seed>
5519

> <vina_pose_rank>
2

> <vina_affinity_kcal_mol>
-6.0389999999999997

> <vina_rmsd_to_crystal_angstrom>
9.8865999999999996

> <minimizedAffinity>
-5.81960

> <CNNscore>
0.0584438555

> <CNNaffinity>
3.6262462139

> <CNN_VS>
0.2119318098

> <CNNaffinity_variance>
1.2754652500

$$$$
CHRNA7_encenicline__hybrid_B_face_seed5519_ex32__pose03


 22 25  0  0  0  0  0  0  0  0999 V2000
  146.7960  144.1940   93.4470 O   0  0  0  0  0  0  0  0  0  0  0  0
  146.3110  143.8940   94.4850 C   0  0  0  0  0  0  0  0  0  0  0  0
  146.7340  144.5670   95.6980 N   0  0  0  0  0  0  0  0  0  0  0  0
  146.3350  144.3260   96.5650 H   0  0  0  0  0  0  0  0  0  0  0  0
  145.2380  142.8010   94.5340 C   0  0  0  0  0  0  0  0  0  0  0  0
  144.1320  142.8110   95.3130 C   0  0  0  0  0  0  0  0  0  0  0  0
  143.2120  141.7120   95.2480 C   0  0  0  0  0  0  0  0  0  0  0  0
  142.0530  141.5720   95.9650 C   0  0  0  0  0  0  0  0  0  0  0  0
  141.2580  140.4390   95.7930 C   0  0  0  0  0  0  0  0  0  0  0  0
  141.6460  139.4390   94.8850 C   0  0  0  0  0  0  0  0  0  0  0  0
  142.8280  139.5750   94.1500 C   0  0  0  0  0  0  0  0  0  0  0  0
  143.3140  138.3050   92.9980 Cl  0  0  0  0  0  0  0  0  0  0  0  0
  143.6130  140.6910   94.3170 C   0  0  0  0  0  0  0  0  0  0  0  0
  145.1750  141.3160   93.6280 S   0  0  0  0  0  0  0  0  0  0  0  0
  147.7720  145.6200   95.6230 C   0  0  0  0  0  0  0  0  0  0  0  0
  147.1070  147.0060   95.5050 C   0  0  0  0  0  0  0  0  0  0  0  0
  147.4930  147.8430   96.5550 N   0  0  0  0  0  0  0  0  0  0  0  0
  148.8630  147.9890   96.5740 C   0  0  0  0  0  0  0  0  0  0  0  0
  149.5510  146.6680   96.7490 C   0  0  0  0  0  0  0  0  0  0  0  0
  148.5870  145.6070   96.8350 C   0  0  0  0  0  0  0  0  0  0  0  0
  147.7150  145.8680   97.9770 C   0  0  0  0  0  0  0  0  0  0  0  0
  147.0640  147.2910   97.7870 C   0  0  0  0  0  0  0  0  0  0  0  0
  1  2  2  0
  2  3  1  0
  3 15  1  0
 15 16  1  0
 16 17  1  0
 17 18  1  0
 18 19  1  0
 19 20  1  0
 20 21  1  0
 21 22  1  0
  2  5  1  0
  5  6  2  0
  6  7  1  0
  7  8  2  0
  8  9  1  0
  9 10  2  0
 10 11  1  0
 11 12  1  0
 11 13  2  0
 13 14  1  0
 20 15  1  0
 14  5  1  0
 22 17  1  0
 13  7  1  0
  3  4  1  0
M  END
> <meeko>
{"is_sidechain": false}

> <source_group>
CHRFAM7A at B face

> <source_system>
CHRNA7_encenicline

> <source_run>
hybrid_B_face_seed5519_ex32

> <source_seed>
5519

> <vina_pose_rank>
3

> <vina_affinity_kcal_mol>
-5.899

> <vina_rmsd_to_crystal_angstrom>
9.7637

> <minimizedAffinity>
-5.68755

> <CNNscore>
0.0698187649

> <CNNaffinity>
3.7159798145

> <CNN_VS>
0.2594451308

> <CNNaffinity_variance>
0.8578615785

$$$$
CHRNA7_encenicline__hybrid_B_face_seed5519_ex32__pose04


 22 25  0  0  0  0  0  0  0  0999 V2000
  140.9560  141.1840   89.1360 O   0  0  0  0  0  0  0  0  0  0  0  0
  141.5200  140.2050   88.7800 C   0  0  0  0  0  0  0  0  0  0  0  0
  142.6180  139.6800   89.5690 N   0  0  0  0  0  0  0  0  0  0  0  0
  143.0900  138.8660   89.2810 H   0  0  0  0  0  0  0  0  0  0  0  0
  141.0810  139.5040   87.4900 C   0  0  0  0  0  0  0  0  0  0  0  0
  141.7910  139.4470   86.3390 C   0  0  0  0  0  0  0  0  0  0  0  0
  141.2480  138.7480   85.2090 C   0  0  0  0  0  0  0  0  0  0  0  0
  141.8360  138.5980   83.9820 C   0  0  0  0  0  0  0  0  0  0  0  0
  141.1810  137.8880   82.9750 C   0  0  0  0  0  0  0  0  0  0  0  0
  139.9160  137.3270   83.2200 C   0  0  0  0  0  0  0  0  0  0  0  0
  139.3100  137.4760   84.4720 C   0  0  0  0  0  0  0  0  0  0  0  0
  137.7060  136.7600   84.7780 Cl  0  0  0  0  0  0  0  0  0  0  0  0
  139.9540  138.1740   85.4650 C   0  0  0  0  0  0  0  0  0  0  0  0
  139.6050  138.6310   87.1900 S   0  0  0  0  0  0  0  0  0  0  0  0
  143.0210  140.3770   90.8110 C   0  0  0  0  0  0  0  0  0  0  0  0
  142.2430  139.8040   92.0120 C   0  0  0  0  0  0  0  0  0  0  0  0
  143.1110  139.2970   92.9820 N   0  0  0  0  0  0  0  0  0  0  0  0
  143.9720  140.2820   93.4170 C   0  0  0  0  0  0  0  0  0  0  0  0
  144.7950  140.8270   92.2880 C   0  0  0  0  0  0  0  0  0  0  0  0
  144.4470  140.1790   91.0550 C   0  0  0  0  0  0  0  0  0  0  0  0
  144.6930  138.7460   91.2030 C   0  0  0  0  0  0  0  0  0  0  0  0
  143.8630  138.2270   92.4370 C   0  0  0  0  0  0  0  0  0  0  0  0
  1  2  2  0
  2  3  1  0
  3 15  1  0
 15 16  1  0
 16 17  1  0
 17 18  1  0
 18 19  1  0
 19 20  1  0
 20 21  1  0
 21 22  1  0
  2  5  1  0
  5  6  2  0
  6  7  1  0
  7  8  2  0
  8  9  1  0
  9 10  2  0
 10 11  1  0
 11 12  1  0
 11 13  2  0
 13 14  1  0
 20 15  1  0
 14  5  1  0
 22 17  1  0
 13  7  1  0
  3  4  1  0
M  END
> <meeko>
{"is_sidechain": false}

> <source_group>
CHRFAM7A at B face

> <source_system>
CHRNA7_encenicline

> <source_run>
hybrid_B_face_seed5519_ex32

> <source_seed>
5519

> <vina_pose_rank>
4

> <vina_affinity_kcal_mol>
-5.8780000000000001

> <vina_rmsd_to_crystal_angstrom>
7.2925000000000004

> <minimizedAffinity>
-5.68942

> <CNNscore>
0.1457707584

> <CNNaffinity>
4.3452472687

> <CNN_VS>
0.6334099770

> <CNNaffinity_variance>
1.5377067327

$$$$
CHRNA7_encenicline__hybrid_B_face_seed5519_ex32__pose05


 22 25  0  0  0  0  0  0  0  0999 V2000
  146.0210  144.8530   96.0500 O   0  0  0  0  0  0  0  0  0  0  0  0
  146.1470  144.2490   95.0390 C   0  0  0  0  0  0  0  0  0  0  0  0
  147.1350  144.6710   94.0660 N   0  0  0  0  0  0  0  0  0  0  0  0
  147.2470  144.1730   93.2240 H   0  0  0  0  0  0  0  0  0  0  0  0
  145.2640  143.0240   94.7730 C   0  0  0  0  0  0  0  0  0  0  0  0
  145.5450  142.0190   93.9120 C   0  0  0  0  0  0  0  0  0  0  0  0
  144.6190  140.9320   93.7710 C   0  0  0  0  0  0  0  0  0  0  0  0
  144.7550  139.8440   92.9500 C   0  0  0  0  0  0  0  0  0  0  0  0
  143.7630  138.8630   92.9190 C   0  0  0  0  0  0  0  0  0  0  0  0
  142.6240  138.9910   93.7320 C   0  0  0  0  0  0  0  0  0  0  0  0
  142.4790  140.0980   94.5740 C   0  0  0  0  0  0  0  0  0  0  0  0
  141.0320  140.2540   95.6040 Cl  0  0  0  0  0  0  0  0  0  0  0  0
  143.4550  141.0660   94.6050 C   0  0  0  0  0  0  0  0  0  0  0  0
  143.7270  142.6310   95.4890 S   0  0  0  0  0  0  0  0  0  0  0  0
  147.9740  145.8580   94.3480 C   0  0  0  0  0  0  0  0  0  0  0  0
  149.3250  145.4160   94.9460 C   0  0  0  0  0  0  0  0  0  0  0  0
  150.3940  145.8600   94.1630 N   0  0  0  0  0  0  0  0  0  0  0  0
  150.3670  147.2320   94.0480 C   0  0  0  0  0  0  0  0  0  0  0  0
  149.0920  147.7040   93.4130 C   0  0  0  0  0  0  0  0  0  0  0  0
  148.2400  146.5880   93.1120 C   0  0  0  0  0  0  0  0  0  0  0  0
  148.9520  145.6990   92.1970 C   0  0  0  0  0  0  0  0  0  0  0  0
  150.3120  145.2800   92.8730 C   0  0  0  0  0  0  0  0  0  0  0  0
  1  2  2  0
  2  3  1  0
  3 15  1  0
 15 16  1  0
 16 17  1  0
 17 18  1  0
 18 19  1  0
 19 20  1  0
 20 21  1  0
 21 22  1  0
  2  5  1  0
  5  6  2  0
  6  7  1  0
  7  8  2  0
  8  9  1  0
  9 10  2  0
 10 11  1  0
 11 12  1  0
 11 13  2  0
 13 14  1  0
 20 15  1  0
 14  5  1  0
 22 17  1  0
 13  7  1  0
  3  4  1  0
M  END
> <meeko>
{"is_sidechain": false}

> <source_group>
CHRFAM7A at B face

> <source_system>
CHRNA7_encenicline

> <source_run>
hybrid_B_face_seed5519_ex32

> <source_seed>
5519

> <vina_pose_rank>
5

> <vina_affinity_kcal_mol>
-5.806

> <vina_rmsd_to_crystal_angstrom>
9.3754000000000008

> <minimizedAffinity>
-5.58768

> <CNNscore>
0.0689079016

> <CNNaffinity>
3.5298528671

> <CNN_VS>
0.2432347536

> <CNNaffinity_variance>
1.5932545662

$$$$
CHRNA7_encenicline__hybrid_B_face_seed5519_ex32__pose06


 22 25  0  0  0  0  0  0  0  0999 V2000
  146.7530  144.5250   93.4950 O   0  0  0  0  0  0  0  0  0  0  0  0
  146.4100  144.1290   94.5570 C   0  0  0  0  0  0  0  0  0  0  0  0
  147.0050  144.6820   95.7580 N   0  0  0  0  0  0  0  0  0  0  0  0
  146.7230  144.3600   96.6450 H   0  0  0  0  0  0  0  0  0  0  0  0
  145.3380  143.0370   94.6490 C   0  0  0  0  0  0  0  0  0  0  0  0
  145.3160  141.8880   93.9360 C   0  0  0  0  0  0  0  0  0  0  0  0
  144.2420  140.9550   94.1330 C   0  0  0  0  0  0  0  0  0  0  0  0
  144.0760  139.7540   93.4960 C   0  0  0  0  0  0  0  0  0  0  0  0
  142.9740  138.9520   93.7940 C   0  0  0  0  0  0  0  0  0  0  0  0
  142.0340  139.3760   94.7490 C   0  0  0  0  0  0  0  0  0  0  0  0
  142.1990  140.6010   95.4040 C   0  0  0  0  0  0  0  0  0  0  0  0
  141.0040  141.1330   96.6160 Cl  0  0  0  0  0  0  0  0  0  0  0  0
  143.2830  141.3930   95.1110 C   0  0  0  0  0  0  0  0  0  0  0  0
  143.9230  143.0020   95.6630 S   0  0  0  0  0  0  0  0  0  0  0  0
  148.0380  145.7360   95.6410 C   0  0  0  0  0  0  0  0  0  0  0  0
  147.3860  147.1270   95.7600 C   0  0  0  0  0  0  0  0  0  0  0  0
  147.9310  147.8530   96.8220 N   0  0  0  0  0  0  0  0  0  0  0  0
  149.2920  147.9940   96.6580 C   0  0  0  0  0  0  0  0  0  0  0  0
  149.9770  146.6600   96.5980 C   0  0  0  0  0  0  0  0  0  0  0  0
  149.0170  145.5980   96.7150 C   0  0  0  0  0  0  0  0  0  0  0  0
  148.3220  145.7430   97.9910 C   0  0  0  0  0  0  0  0  0  0  0  0
  147.6740  147.1780   98.0410 C   0  0  0  0  0  0  0  0  0  0  0  0
  1  2  2  0
  2  3  1  0
  3 15  1  0
 15 16  1  0
 16 17  1  0
 17 18  1  0
 18 19  1  0
 19 20  1  0
 20 21  1  0
 21 22  1  0
  2  5  1  0
  5  6  2  0
  6  7  1  0
  7  8  2  0
  8  9  1  0
  9 10  2  0
 10 11  1  0
 11 12  1  0
 11 13  2  0
 13 14  1  0
 20 15  1  0
 14  5  1  0
 22 17  1  0
 13  7  1  0
  3  4  1  0
M  END
> <meeko>
{"is_sidechain": false}

> <source_group>
CHRFAM7A at B face

> <source_system>
CHRNA7_encenicline

> <source_run>
hybrid_B_face_seed5519_ex32

> <source_seed>
5519

> <vina_pose_rank>
6

> <vina_affinity_kcal_mol>
-5.7249999999999996

> <vina_rmsd_to_crystal_angstrom>
10.021699999999999

> <minimizedAffinity>
-5.52590

> <CNNscore>
0.0798363015

> <CNNaffinity>
3.3049366474

> <CNN_VS>
0.2638539076

> <CNNaffinity_variance>
1.4345169067

$$$$
CHRNA7_encenicline__hybrid_B_face_seed5519_ex32__pose07


 22 25  0  0  0  0  0  0  0  0999 V2000
  147.5000  138.5730   90.0880 O   0  0  0  0  0  0  0  0  0  0  0  0
  147.7150  138.3260   91.2260 C   0  0  0  0  0  0  0  0  0  0  0  0
  146.6250  138.3340   92.1820 N   0  0  0  0  0  0  0  0  0  0  0  0
  146.7950  138.1280   93.1300 H   0  0  0  0  0  0  0  0  0  0  0  0
  149.1430  137.9980   91.6740 C   0  0  0  0  0  0  0  0  0  0  0  0
  149.8410  138.6500   92.6330 C   0  0  0  0  0  0  0  0  0  0  0  0
  151.1760  138.2240   92.9460 C   0  0  0  0  0  0  0  0  0  0  0  0
  152.0090  138.7730   93.8850 C   0  0  0  0  0  0  0  0  0  0  0  0
  153.2870  138.2480   94.0770 C   0  0  0  0  0  0  0  0  0  0  0  0
  153.7210  137.1560   93.3060 C   0  0  0  0  0  0  0  0  0  0  0  0
  152.8750  136.5910   92.3470 C   0  0  0  0  0  0  0  0  0  0  0  0
  153.4300  135.2040   91.3730 Cl  0  0  0  0  0  0  0  0  0  0  0  0
  151.6160  137.1060   92.1560 C   0  0  0  0  0  0  0  0  0  0  0  0
  150.1950  136.7440   91.0810 S   0  0  0  0  0  0  0  0  0  0  0  0
  145.2550  138.6540   91.7230 C   0  0  0  0  0  0  0  0  0  0  0  0
  144.2210  137.9280   92.6060 C   0  0  0  0  0  0  0  0  0  0  0  0
  143.3500  138.8350   93.2160 N   0  0  0  0  0  0  0  0  0  0  0  0
  142.6970  139.5870   92.2640 C   0  0  0  0  0  0  0  0  0  0  0  0
  143.6650  140.3600   91.4180 C   0  0  0  0  0  0  0  0  0  0  0  0
  145.0150  140.0910   91.8270 C   0  0  0  0  0  0  0  0  0  0  0  0
  145.1580  140.4790   93.2280 C   0  0  0  0  0  0  0  0  0  0  0  0
  144.0820  139.6950   94.0710 C   0  0  0  0  0  0  0  0  0  0  0  0
  1  2  2  0
  2  3  1  0
  3 15  1  0
 15 16  1  0
 16 17  1  0
 17 18  1  0
 18 19  1  0
 19 20  1  0
 20 21  1  0
 21 22  1  0
  2  5  1  0
  5  6  2  0
  6  7  1  0
  7  8  2  0
  8  9  1  0
  9 10  2  0
 10 11  1  0
 11 12  1  0
 11 13  2  0
 13 14  1  0
 20 15  1  0
 14  5  1  0
 22 17  1  0
 13  7  1  0
  3  4  1  0
M  END
> <meeko>
{"is_sidechain": false}

> <source_group>
CHRFAM7A at B face

> <source_system>
CHRNA7_encenicline

> <source_run>
hybrid_B_face_seed5519_ex32

> <source_seed>
5519

> <vina_pose_rank>
7

> <vina_affinity_kcal_mol>
-5.7160000000000002

> <vina_rmsd_to_crystal_angstrom>
6.3879999999999999

> <minimizedAffinity>
-5.49227

> <CNNscore>
0.0793442279

> <CNNaffinity>
3.9346160889

> <CNN_VS>
0.3121890724

> <CNNaffinity_variance>
1.1688559055

$$$$
CHRNA7_encenicline__hybrid_B_face_seed5519_ex32__pose08


 22 25  0  0  0  0  0  0  0  0999 V2000
  145.9740  145.2200   95.7390 O   0  0  0  0  0  0  0  0  0  0  0  0
  146.1440  144.4360   94.8670 C   0  0  0  0  0  0  0  0  0  0  0  0
  147.2000  144.6550   93.8970 N   0  0  0  0  0  0  0  0  0  0  0  0
  147.3490  144.0080   93.1710 H   0  0  0  0  0  0  0  0  0  0  0  0
  145.2460  143.1970   94.7750 C   0  0  0  0  0  0  0  0  0  0  0  0
  144.0650  143.0270   95.4120 C   0  0  0  0  0  0  0  0  0  0  0  0
  143.3320  141.8070   95.2270 C   0  0  0  0  0  0  0  0  0  0  0  0
  142.1280  141.4820   95.7940 C   0  0  0  0  0  0  0  0  0  0  0  0
  141.5360  140.2490   95.5180 C   0  0  0  0  0  0  0  0  0  0  0  0
  142.1750  139.3400   94.6580 C   0  0  0  0  0  0  0  0  0  0  0  0
  143.4030  139.6660   94.0750 C   0  0  0  0  0  0  0  0  0  0  0  0
  144.2080  138.5080   92.9830 Cl  0  0  0  0  0  0  0  0  0  0  0  0
  143.9890  140.8790   94.3450 C   0  0  0  0  0  0  0  0  0  0  0  0
  145.5130  141.7420   93.8590 S   0  0  0  0  0  0  0  0  0  0  0  0
  148.0520  145.8610   94.0090 C   0  0  0  0  0  0  0  0  0  0  0  0
  149.3210  145.5340   94.8200 C   0  0  0  0  0  0  0  0  0  0  0  0
  150.4770  145.7830   94.0750 N   0  0  0  0  0  0  0  0  0  0  0  0
  150.5130  147.1010   93.6730 C   0  0  0  0  0  0  0  0  0  0  0  0
  149.3240  147.4480   92.8270 C   0  0  0  0  0  0  0  0  0  0  0  0
  148.4630  146.3070   92.6810 C   0  0  0  0  0  0  0  0  0  0  0  0
  149.2250  145.2330   92.0500 C   0  0  0  0  0  0  0  0  0  0  0  0
  150.4980  144.9450   92.9340 C   0  0  0  0  0  0  0  0  0  0  0  0
  1  2  2  0
  2  3  1  0
  3 15  1  0
 15 16  1  0
 16 17  1  0
 17 18  1  0
 18 19  1  0
 19 20  1  0
 20 21  1  0
 21 22  1  0
  2  5  1  0
  5  6  2  0
  6  7  1  0
  7  8  2  0
  8  9  1  0
  9 10  2  0
 10 11  1  0
 11 12  1  0
 11 13  2  0
 13 14  1  0
 20 15  1  0
 14  5  1  0
 22 17  1  0
 13  7  1  0
  3  4  1  0
M  END
> <meeko>
{"is_sidechain": false}

> <source_group>
CHRFAM7A at B face

> <source_system>
CHRNA7_encenicline

> <source_run>
hybrid_B_face_seed5519_ex32

> <source_seed>
5519

> <vina_pose_rank>
8

> <vina_affinity_kcal_mol>
-5.6719999999999997

> <vina_rmsd_to_crystal_angstrom>
9.4060000000000006

> <minimizedAffinity>
-5.47443

> <CNNscore>
0.0701311678

> <CNNaffinity>
3.6383569241

> <CNN_VS>
0.2551622093

> <CNNaffinity_variance>
1.1973344088

$$$$
CHRNA7_encenicline__hybrid_B_face_seed5519_ex32__pose09


 22 25  0  0  0  0  0  0  0  0999 V2000
  145.7610  138.3170   90.9170 O   0  0  0  0  0  0  0  0  0  0  0  0
  146.1570  138.7000   91.9650 C   0  0  0  0  0  0  0  0  0  0  0  0
  147.5280  138.4350   92.3580 N   0  0  0  0  0  0  0  0  0  0  0  0
  147.8650  138.7530   93.2260 H   0  0  0  0  0  0  0  0  0  0  0  0
  145.2160  139.4760   92.8930 C   0  0  0  0  0  0  0  0  0  0  0  0
  145.4730  140.6810   93.4530 C   0  0  0  0  0  0  0  0  0  0  0  0
  144.4890  141.2880   94.3030 C   0  0  0  0  0  0  0  0  0  0  0  0
  144.5940  142.4960   94.9410 C   0  0  0  0  0  0  0  0  0  0  0  0
  143.5470  142.9570   95.7410 C   0  0  0  0  0  0  0  0  0  0  0  0
  142.3850  142.1810   95.8930 C   0  0  0  0  0  0  0  0  0  0  0  0
  142.2720  140.9470   95.2440 C   0  0  0  0  0  0  0  0  0  0  0  0
  140.7950  139.9690   95.4390 Cl  0  0  0  0  0  0  0  0  0  0  0  0
  143.3010  140.4920   94.4560 C   0  0  0  0  0  0  0  0  0  0  0  0
  143.6300  139.0180   93.4430 S   0  0  0  0  0  0  0  0  0  0  0  0
  148.4160  137.6830   91.4430 C   0  0  0  0  0  0  0  0  0  0  0  0
  149.0410  138.6430   90.4110 C   0  0  0  0  0  0  0  0  0  0  0  0
  150.4360  138.6150   90.4740 N   0  0  0  0  0  0  0  0  0  0  0  0
  150.9000  137.3360   90.2550 C   0  0  0  0  0  0  0  0  0  0  0  0
  150.3640  136.3770   91.2760 C   0  0  0  0  0  0  0  0  0  0  0  0
  149.4980  137.0580   92.1970 C   0  0  0  0  0  0  0  0  0  0  0  0
  150.2650  138.1100   92.8590 C   0  0  0  0  0  0  0  0  0  0  0  0
  150.8640  139.0560   91.7500 C   0  0  0  0  0  0  0  0  0  0  0  0
  1  2  2  0
  2  3  1  0
  3 15  1  0
 15 16  1  0
 16 17  1  0
 17 18  1  0
 18 19  1  0
 19 20  1  0
 20 21  1  0
 21 22  1  0
  2  5  1  0
  5  6  2  0
  6  7  1  0
  7  8  2  0
  8  9  1  0
  9 10  2  0
 10 11  1  0
 11 12  1  0
 11 13  2  0
 13 14  1  0
 20 15  1  0
 14  5  1  0
 22 17  1  0
 13  7  1  0
  3  4  1  0
M  END
> <meeko>
{"is_sidechain": false}

> <source_group>
CHRFAM7A at B face

> <source_system>
CHRNA7_encenicline

> <source_run>
hybrid_B_face_seed5519_ex32

> <source_seed>
5519

> <vina_pose_rank>
9

> <vina_affinity_kcal_mol>
-5.6639999999999997

> <vina_rmsd_to_crystal_angstrom>
8.7403999999999993

> <minimizedAffinity>
-5.51160

> <CNNscore>
0.1833818555

> <CNNaffinity>
4.4870033264

> <CNN_VS>
0.8228349686

> <CNNaffinity_variance>
0.5668719411

$$$$
CHRNA7_encenicline__hybrid_B_face_seed5519_ex32__pose10


 22 25  0  0  0  0  0  0  0  0999 V2000
  148.5040  137.6720   92.2990 O   0  0  0  0  0  0  0  0  0  0  0  0
  147.9560  138.1390   91.3590 C   0  0  0  0  0  0  0  0  0  0  0  0
  148.6580  138.2430   90.0940 N   0  0  0  0  0  0  0  0  0  0  0  0
  148.2090  138.6280   89.3080 H   0  0  0  0  0  0  0  0  0  0  0  0
  146.5080  138.6250   91.4890 C   0  0  0  0  0  0  0  0  0  0  0  0
  145.7060  139.0050   90.4670 C   0  0  0  0  0  0  0  0  0  0  0  0
  144.3660  139.4360   90.7450 C   0  0  0  0  0  0  0  0  0  0  0  0
  143.4340  139.8480   89.8290 C   0  0  0  0  0  0  0  0  0  0  0  0
  142.1650  140.2420   90.2540 C   0  0  0  0  0  0  0  0  0  0  0  0
  141.8420  140.2170   91.6210 C   0  0  0  0  0  0  0  0  0  0  0  0
  142.7880  139.7970   92.5610 C   0  0  0  0  0  0  0  0  0  0  0  0
  142.3720  139.7650   94.2940 Cl  0  0  0  0  0  0  0  0  0  0  0  0
  144.0390  139.4080   92.1450 C   0  0  0  0  0  0  0  0  0  0  0  0
  145.5600  138.8050   92.9370 S   0  0  0  0  0  0  0  0  0  0  0  0
  150.0570  137.7660   89.9960 C   0  0  0  0  0  0  0  0  0  0  0  0
  150.0890  136.3590   89.3660 C   0  0  0  0  0  0  0  0  0  0  0  0
  150.8620  136.3440   88.2020 N   0  0  0  0  0  0  0  0  0  0  0  0
  152.1480  136.7570   88.4760 C   0  0  0  0  0  0  0  0  0  0  0  0
  152.1690  138.1480   89.0360 C   0  0  0  0  0  0  0  0  0  0  0  0
  150.8330  138.6640   89.1470 C   0  0  0  0  0  0  0  0  0  0  0  0
  150.2310  138.6730   87.8160 C   0  0  0  0  0  0  0  0  0  0  0  0
  150.2890  137.2080   87.2380 C   0  0  0  0  0  0  0  0  0  0  0  0
  1  2  2  0
  2  3  1  0
  3 15  1  0
 15 16  1  0
 16 17  1  0
 17 18  1  0
 18 19  1  0
 19 20  1  0
 20 21  1  0
 21 22  1  0
  2  5  1  0
  5  6  2  0
  6  7  1  0
  7  8  2  0
  8  9  1  0
  9 10  2  0
 10 11  1  0
 11 12  1  0
 11 13  2  0
 13 14  1  0
 20 15  1  0
 14  5  1  0
 22 17  1  0
 13  7  1  0
  3  4  1  0
M  END
> <meeko>
{"is_sidechain": false}

> <source_group>
CHRFAM7A at B face

> <source_system>
CHRNA7_encenicline

> <source_run>
hybrid_B_face_seed5519_ex32

> <source_seed>
5519

> <vina_pose_rank>
10

> <vina_affinity_kcal_mol>
-5.5129999999999999

> <vina_rmsd_to_crystal_angstrom>
8.5645000000000007

> <minimizedAffinity>
-5.28839

> <CNNscore>
0.2585677207

> <CNNaffinity>
5.0428543091

> <CNN_VS>
1.3039193153

> <CNNaffinity_variance>
0.2762246728

$$$$
CHRNA7_encenicline__hybrid_B_face_seed5519_ex32__pose11


 22 25  0  0  0  0  0  0  0  0999 V2000
  151.5990  136.3390   87.3900 O   0  0  0  0  0  0  0  0  0  0  0  0
  150.8340  136.2340   88.2880 C   0  0  0  0  0  0  0  0  0  0  0  0
  149.5250  135.6540   88.0570 N   0  0  0  0  0  0  0  0  0  0  0  0
  148.8850  135.5620   88.7980 H   0  0  0  0  0  0  0  0  0  0  0  0
  151.2390  136.7100   89.6880 C   0  0  0  0  0  0  0  0  0  0  0  0
  152.2310  136.1880   90.4460 C   0  0  0  0  0  0  0  0  0  0  0  0
  152.4960  136.7430   91.7420 C   0  0  0  0  0  0  0  0  0  0  0  0
  153.4590  136.3330   92.6250 C   0  0  0  0  0  0  0  0  0  0  0  0
  153.5960  136.9730   93.8570 C   0  0  0  0  0  0  0  0  0  0  0  0
  152.7450  138.0410   94.1920 C   0  0  0  0  0  0  0  0  0  0  0  0
  151.7610  138.4650   93.2950 C   0  0  0  0  0  0  0  0  0  0  0  0
  150.6860  139.8210   93.7240 Cl  0  0  0  0  0  0  0  0  0  0  0  0
  151.6240  137.8350   92.0810 C   0  0  0  0  0  0  0  0  0  0  0  0
  150.5460  138.0020   90.6270 S   0  0  0  0  0  0  0  0  0  0  0  0
  149.1600  135.2020   86.6950 C   0  0  0  0  0  0  0  0  0  0  0  0
  148.0760  134.1100   86.7770 C   0  0  0  0  0  0  0  0  0  0  0  0
  146.9250  134.4850   86.0780 N   0  0  0  0  0  0  0  0  0  0  0  0
  147.2280  134.7370   84.7570 C   0  0  0  0  0  0  0  0  0  0  0  0
  148.2380  135.8380   84.6270 C   0  0  0  0  0  0  0  0  0  0  0  0
  148.6240  136.3200   85.9240 C   0  0  0  0  0  0  0  0  0  0  0  0
  147.4310  136.8180   86.6050 C   0  0  0  0  0  0  0  0  0  0  0  0
  146.3720  135.6510   86.6610 C   0  0  0  0  0  0  0  0  0  0  0  0
  1  2  2  0
  2  3  1  0
  3 15  1  0
 15 16  1  0
 16 17  1  0
 17 18  1  0
 18 19  1  0
 19 20  1  0
 20 21  1  0
 21 22  1  0
  2  5  1  0
  5  6  2  0
  6  7  1  0
  7  8  2  0
  8  9  1  0
  9 10  2  0
 10 11  1  0
 11 12  1  0
 11 13  2  0
 13 14  1  0
 20 15  1  0
 14  5  1  0
 22 17  1  0
 13  7  1  0
  3  4  1  0
M  END
> <meeko>
{"is_sidechain": false}

> <source_group>
CHRFAM7A at B face

> <source_system>
CHRNA7_encenicline

> <source_run>
hybrid_B_face_seed5519_ex32

> <source_seed>
5519

> <vina_pose_rank>
11

> <vina_affinity_kcal_mol>
-5.4939999999999998

> <vina_rmsd_to_crystal_angstrom>
8.8478999999999992

> <minimizedAffinity>
-5.33697

> <CNNscore>
0.1048895121

> <CNNaffinity>
4.2198677063

> <CNN_VS>
0.4426198602

> <CNNaffinity_variance>
1.1299343109

$$$$
CHRNA7_encenicline__hybrid_B_face_seed5519_ex32__pose12


 22 25  0  0  0  0  0  0  0  0999 V2000
  139.8500  140.9640   87.7310 O   0  0  0  0  0  0  0  0  0  0  0  0
  140.7570  140.2050   87.8100 C   0  0  0  0  0  0  0  0  0  0  0  0
  141.1060  139.3790   86.6710 N   0  0  0  0  0  0  0  0  0  0  0  0
  141.8600  138.7480   86.7280 H   0  0  0  0  0  0  0  0  0  0  0  0
  141.5530  140.1100   89.1170 C   0  0  0  0  0  0  0  0  0  0  0  0
  142.8610  139.7830   89.2240 C   0  0  0  0  0  0  0  0  0  0  0  0
  143.4730  139.7360   90.5210 C   0  0  0  0  0  0  0  0  0  0  0  0
  144.7780  139.4270   90.7990 C   0  0  0  0  0  0  0  0  0  0  0  0
  145.2290  139.4210   92.1190 C   0  0  0  0  0  0  0  0  0  0  0  0
  144.3440  139.7320   93.1650 C   0  0  0  0  0  0  0  0  0  0  0  0
  143.0110  140.0500   92.8890 C   0  0  0  0  0  0  0  0  0  0  0  0
  141.8930  140.4460   94.2200 Cl  0  0  0  0  0  0  0  0  0  0  0  0
  142.5640  140.0560   91.5890 C   0  0  0  0  0  0  0  0  0  0  0  0
  140.9910  140.3880   90.7400 S   0  0  0  0  0  0  0  0  0  0  0  0
  140.3210  139.4920   85.4210 C   0  0  0  0  0  0  0  0  0  0  0  0
  141.2660  139.7250   84.2260 C   0  0  0  0  0  0  0  0  0  0  0  0
  141.1230  138.7230   83.2640 N   0  0  0  0  0  0  0  0  0  0  0  0
  139.8200  138.6680   82.8180 C   0  0  0  0  0  0  0  0  0  0  0  0
  138.8690  138.3820   83.9420 C   0  0  0  0  0  0  0  0  0  0  0  0
  139.5810  138.2560   85.1820 C   0  0  0  0  0  0  0  0  0  0  0  0
  140.5420  137.1630   85.0530 C   0  0  0  0  0  0  0  0  0  0  0  0
  141.4780  137.4710   83.8230 C   0  0  0  0  0  0  0  0  0  0  0  0
  1  2  2  0
  2  3  1  0
  3 15  1  0
 15 16  1  0
 16 17  1  0
 17 18  1  0
 18 19  1  0
 19 20  1  0
 20 21  1  0
 21 22  1  0
  2  5  1  0
  5  6  2  0
  6  7  1  0
  7  8  2  0
  8  9  1  0
  9 10  2  0
 10 11  1  0
 11 12  1  0
 11 13  2  0
 13 14  1  0
 20 15  1  0
 14  5  1  0
 22 17  1  0
 13  7  1  0
  3  4  1  0
M  END
> <meeko>
{"is_sidechain": false}

> <source_group>
CHRFAM7A at B face

> <source_system>
CHRNA7_encenicline

> <source_run>
hybrid_B_face_seed5519_ex32

> <source_seed>
5519

> <vina_pose_rank>
12

> <vina_affinity_kcal_mol>
-5.3689999999999998

> <vina_rmsd_to_crystal_angstrom>
5.1740000000000004

> <minimizedAffinity>
-5.13988

> <CNNscore>
0.1173670664

> <CNNaffinity>
4.8821702003

> <CNN_VS>
0.5730059743

> <CNNaffinity_variance>
1.0888271332

$$$$
CHRNA7_encenicline__hybrid_B_face_seed5519_ex32__pose13


 22 25  0  0  0  0  0  0  0  0999 V2000
  148.2860  137.6930   92.2170 O   0  0  0  0  0  0  0  0  0  0  0  0
  148.0230  138.2000   91.1790 C   0  0  0  0  0  0  0  0  0  0  0  0
  146.6620  138.6190   90.9060 N   0  0  0  0  0  0  0  0  0  0  0  0
  146.4370  139.0420   90.0470 H   0  0  0  0  0  0  0  0  0  0  0  0
  149.1280  138.4100   90.1370 C   0  0  0  0  0  0  0  0  0  0  0  0
  149.0220  138.1640   88.8110 C   0  0  0  0  0  0  0  0  0  0  0  0
  150.1470  138.4130   87.9550 C   0  0  0  0  0  0  0  0  0  0  0  0
  150.2010  138.2190   86.6000 C   0  0  0  0  0  0  0  0  0  0  0  0
  151.3730  138.5060   85.9000 C   0  0  0  0  0  0  0  0  0  0  0  0
  152.4990  138.9950   86.5850 C   0  0  0  0  0  0  0  0  0  0  0  0
  152.4500  139.1950   87.9670 C   0  0  0  0  0  0  0  0  0  0  0  0
  153.8800  139.8170   88.8310 Cl  0  0  0  0  0  0  0  0  0  0  0  0
  151.2960  138.9130   88.6600 C   0  0  0  0  0  0  0  0  0  0  0  0
  150.7460  138.9980   90.3900 S   0  0  0  0  0  0  0  0  0  0  0  0
  145.6150  138.4040   91.9300 C   0  0  0  0  0  0  0  0  0  0  0  0
  145.3970  139.6980   92.7380 C   0  0  0  0  0  0  0  0  0  0  0  0
  144.0730  140.1350   92.6490 N   0  0  0  0  0  0  0  0  0  0  0  0
  143.2140  139.1570   93.1030 C   0  0  0  0  0  0  0  0  0  0  0  0
  143.3490  137.8950   92.3030 C   0  0  0  0  0  0  0  0  0  0  0  0
  144.3520  138.0510   91.2870 C   0  0  0  0  0  0  0  0  0  0  0  0
  143.9570  139.1530   90.4140 C   0  0  0  0  0  0  0  0  0  0  0  0
  143.7620  140.4410   91.3020 C   0  0  0  0  0  0  0  0  0  0  0  0
  1  2  2  0
  2  3  1  0
  3 15  1  0
 15 16  1  0
 16 17  1  0
 17 18  1  0
 18 19  1  0
 19 20  1  0
 20 21  1  0
 21 22  1  0
  2  5  1  0
  5  6  2  0
  6  7  1  0
  7  8  2  0
  8  9  1  0
  9 10  2  0
 10 11  1  0
 11 12  1  0
 11 13  2  0
 13 14  1  0
 20 15  1  0
 14  5  1  0
 22 17  1  0
 13  7  1  0
  3  4  1  0
M  END
> <meeko>
{"is_sidechain": false}

> <source_group>
CHRFAM7A at B face

> <source_system>
CHRNA7_encenicline

> <source_run>
hybrid_B_face_seed5519_ex32

> <source_seed>
5519

> <vina_pose_rank>
13

> <vina_affinity_kcal_mol>
-5.367

> <vina_rmsd_to_crystal_angstrom>
6.6669

> <minimizedAffinity>
-5.14542

> <CNNscore>
0.1157302782

> <CNNaffinity>
4.9310231209

> <CNN_VS>
0.5706686974

> <CNNaffinity_variance>
0.4436309636

$$$$
CHRNA7_encenicline__hybrid_B_face_seed5519_ex32__pose14


 22 25  0  0  0  0  0  0  0  0999 V2000
  148.0740  143.1270   94.8300 O   0  0  0  0  0  0  0  0  0  0  0  0
  147.0570  143.6150   94.4680 C   0  0  0  0  0  0  0  0  0  0  0  0
  147.0650  144.9360   93.8710 N   0  0  0  0  0  0  0  0  0  0  0  0
  146.2240  145.3480   93.5660 H   0  0  0  0  0  0  0  0  0  0  0  0
  145.7440  142.8400   94.6310 C   0  0  0  0  0  0  0  0  0  0  0  0
  144.6910  143.2200   95.3900 C   0  0  0  0  0  0  0  0  0  0  0  0
  143.5230  142.3880   95.4430 C   0  0  0  0  0  0  0  0  0  0  0  0
  142.3790  142.6300   96.1570 C   0  0  0  0  0  0  0  0  0  0  0  0
  141.3210  141.7210   96.1100 C   0  0  0  0  0  0  0  0  0  0  0  0
  141.4280  140.5580   95.3290 C   0  0  0  0  0  0  0  0  0  0  0  0
  142.5920  140.3060   94.5960 C   0  0  0  0  0  0  0  0  0  0  0  0
  142.7220  138.8300   93.6050 Cl  0  0  0  0  0  0  0  0  0  0  0  0
  143.6360  141.1990   94.6420 C   0  0  0  0  0  0  0  0  0  0  0  0
  145.2920  141.3250   93.9030 S   0  0  0  0  0  0  0  0  0  0  0  0
  148.3470  145.6620   93.7250 C   0  0  0  0  0  0  0  0  0  0  0  0
  148.2580  146.6540   92.5490 C   0  0  0  0  0  0  0  0  0  0  0  0
  148.5030  147.9640   92.9710 N   0  0  0  0  0  0  0  0  0  0  0  0
  149.7460  148.0540   93.5580 C   0  0  0  0  0  0  0  0  0  0  0  0
  149.8570  147.1470   94.7480 C   0  0  0  0  0  0  0  0  0  0  0  0
  148.6330  146.4200   94.9400 C   0  0  0  0  0  0  0  0  0  0  0  0
  147.5540  147.3820   95.1470 C   0  0  0  0  0  0  0  0  0  0  0  0
  147.5150  148.3550   93.9080 C   0  0  0  0  0  0  0  0  0  0  0  0
  1  2  2  0
  2  3  1  0
  3 15  1  0
 15 16  1  0
 16 17  1  0
 17 18  1  0
 18 19  1  0
 19 20  1  0
 20 21  1  0
 21 22  1  0
  2  5  1  0
  5  6  2  0
  6  7  1  0
  7  8  2  0
  8  9  1  0
  9 10  2  0
 10 11  1  0
 11 12  1  0
 11 13  2  0
 13 14  1  0
 20 15  1  0
 14  5  1  0
 22 17  1  0
 13  7  1  0
  3  4  1  0
M  END
> <meeko>
{"is_sidechain": false}

> <source_group>
CHRFAM7A at B face

> <source_system>
CHRNA7_encenicline

> <source_run>
hybrid_B_face_seed5519_ex32

> <source_seed>
5519

> <vina_pose_rank>
14

> <vina_affinity_kcal_mol>
-5.3159999999999998

> <vina_rmsd_to_crystal_angstrom>
9.6439000000000004

> <minimizedAffinity>
-5.11913

> <CNNscore>
0.0579700246

> <CNNaffinity>
3.3149175644

> <CNN_VS>
0.1921658516

> <CNNaffinity_variance>
1.4174289703

$$$$
CHRNA7_encenicline__hybrid_B_face_seed5519_ex32__pose15


 22 25  0  0  0  0  0  0  0  0999 V2000
  144.8060  145.2930   98.4450 O   0  0  0  0  0  0  0  0  0  0  0  0
  144.8570  144.5910   97.4930 C   0  0  0  0  0  0  0  0  0  0  0  0
  146.0320  144.6120   96.6430 N   0  0  0  0  0  0  0  0  0  0  0  0
  146.0820  144.0290   95.8520 H   0  0  0  0  0  0  0  0  0  0  0  0
  143.6800  143.6630   97.1730 C   0  0  0  0  0  0  0  0  0  0  0  0
  143.6880  142.6580   96.2660 C   0  0  0  0  0  0  0  0  0  0  0  0
  142.5040  141.8690   96.0770 C   0  0  0  0  0  0  0  0  0  0  0  0
  142.3510  140.8220   95.2060 C   0  0  0  0  0  0  0  0  0  0  0  0
  141.1320  140.1480   95.1330 C   0  0  0  0  0  0  0  0  0  0  0  0
  140.0600  140.5420   95.9530 C   0  0  0  0  0  0  0  0  0  0  0  0
  140.2110  141.6090   96.8440 C   0  0  0  0  0  0  0  0  0  0  0  0
  138.8490  142.1030   97.8830 Cl  0  0  0  0  0  0  0  0  0  0  0  0
  141.4110  142.2750   96.9180 C   0  0  0  0  0  0  0  0  0  0  0  0
  142.0860  143.6670   97.8730 S   0  0  0  0  0  0  0  0  0  0  0  0
  147.1550  145.5180   96.9760 C   0  0  0  0  0  0  0  0  0  0  0  0
  148.4730  144.9490   96.4150 C   0  0  0  0  0  0  0  0  0  0  0  0
  149.0790  145.8480   95.5340 N   0  0  0  0  0  0  0  0  0  0  0  0
  149.3260  147.0470   96.1680 C   0  0  0  0  0  0  0  0  0  0  0  0
  148.0600  147.6680   96.6780 C   0  0  0  0  0  0  0  0  0  0  0  0
  146.9330  146.8300   96.3760 C   0  0  0  0  0  0  0  0  0  0  0  0
  146.8570  146.6660   94.9260 C   0  0  0  0  0  0  0  0  0  0  0  0
  148.2280  146.0740   94.4240 C   0  0  0  0  0  0  0  0  0  0  0  0
  1  2  2  0
  2  3  1  0
  3 15  1  0
 15 16  1  0
 16 17  1  0
 17 18  1  0
 18 19  1  0
 19 20  1  0
 20 21  1  0
 21 22  1  0
  2  5  1  0
  5  6  2  0
  6  7  1  0
  7  8  2  0
  8  9  1  0
  9 10  2  0
 10 11  1  0
 11 12  1  0
 11 13  2  0
 13 14  1  0
 20 15  1  0
 14  5  1  0
 22 17  1  0
 13  7  1  0
  3  4  1  0
M  END
> <meeko>
{"is_sidechain": false}

> <source_group>
CHRFAM7A at B face

> <source_system>
CHRNA7_encenicline

> <source_run>
hybrid_B_face_seed5519_ex32

> <source_seed>
5519

> <vina_pose_rank>
15

> <vina_affinity_kcal_mol>
-5.3019999999999996

> <vina_rmsd_to_crystal_angstrom>
10.6241

> <minimizedAffinity>
-5.11307

> <CNNscore>
0.0989008620

> <CNNaffinity>
3.3723514080

> <CNN_VS>
0.3335284591

> <CNNaffinity_variance>
0.9420521855

$$$$
CHRNA7_encenicline__hybrid_B_face_seed5519_ex32__pose16


 22 25  0  0  0  0  0  0  0  0999 V2000
  147.9710  138.4270   89.4740 O   0  0  0  0  0  0  0  0  0  0  0  0
  147.7450  138.2690   90.6260 C   0  0  0  0  0  0  0  0  0  0  0  0
  148.7450  137.6570   91.4790 N   0  0  0  0  0  0  0  0  0  0  0  0
  148.5660  137.5240   92.4370 H   0  0  0  0  0  0  0  0  0  0  0  0
  146.3980  138.7170   91.2020 C   0  0  0  0  0  0  0  0  0  0  0  0
  146.1160  138.8870   92.5150 C   0  0  0  0  0  0  0  0  0  0  0  0
  144.8030  139.3160   92.9050 C   0  0  0  0  0  0  0  0  0  0  0  0
  144.3610  139.5350   94.1830 C   0  0  0  0  0  0  0  0  0  0  0  0
  143.0480  139.9500   94.4060 C   0  0  0  0  0  0  0  0  0  0  0  0
  142.1780  140.1440   93.3200 C   0  0  0  0  0  0  0  0  0  0  0  0
  142.6230  139.9240   92.0130 C   0  0  0  0  0  0  0  0  0  0  0  0
  141.5150  140.1740   90.6380 Cl  0  0  0  0  0  0  0  0  0  0  0  0
  143.9160  139.5140   91.7900 C   0  0  0  0  0  0  0  0  0  0  0  0
  144.9360  139.1080   90.3410 S   0  0  0  0  0  0  0  0  0  0  0  0
  150.0390  137.2330   90.8960 C   0  0  0  0  0  0  0  0  0  0  0  0
  151.0960  138.3350   91.1060 C   0  0  0  0  0  0  0  0  0  0  0  0
  152.1920  137.8530   91.8260 N   0  0  0  0  0  0  0  0  0  0  0  0
  152.7640  136.7840   91.1710 C   0  0  0  0  0  0  0  0  0  0  0  0
  151.7850  135.6610   90.9980 C   0  0  0  0  0  0  0  0  0  0  0  0
  150.5090  136.0180   91.5540 C   0  0  0  0  0  0  0  0  0  0  0  0
  150.6900  136.3050   92.9740 C   0  0  0  0  0  0  0  0  0  0  0  0
  151.7730  137.4420   93.1150 C   0  0  0  0  0  0  0  0  0  0  0  0
  1  2  2  0
  2  3  1  0
  3 15  1  0
 15 16  1  0
 16 17  1  0
 17 18  1  0
 18 19  1  0
 19 20  1  0
 20 21  1  0
 21 22  1  0
  2  5  1  0
  5  6  2  0
  6  7  1  0
  7  8  2  0
  8  9  1  0
  9 10  2  0
 10 11  1  0
 11 12  1  0
 11 13  2  0
 13 14  1  0
 20 15  1  0
 14  5  1  0
 22 17  1  0
 13  7  1  0
  3  4  1  0
M  END
> <meeko>
{"is_sidechain": false}

> <source_group>
CHRFAM7A at B face

> <source_system>
CHRNA7_encenicline

> <source_run>
hybrid_B_face_seed5519_ex32

> <source_seed>
5519

> <vina_pose_rank>
16

> <vina_affinity_kcal_mol>
-5.2290000000000001

> <vina_rmsd_to_crystal_angstrom>
9.0350999999999999

> <minimizedAffinity>
-5.01271

> <CNNscore>
0.3654287457

> <CNNaffinity>
4.5545010567

> <CNN_VS>
1.6643456221

> <CNNaffinity_variance>
0.5372762680

$$$$
CHRNA7_encenicline__hybrid_B_face_seed5519_ex32__pose17


 22 25  0  0  0  0  0  0  0  0999 V2000
  145.3010  144.7420   97.4280 O   0  0  0  0  0  0  0  0  0  0  0  0
  145.2460  144.1250   96.4180 C   0  0  0  0  0  0  0  0  0  0  0  0
  146.2620  144.3170   95.4010 N   0  0  0  0  0  0  0  0  0  0  0  0
  146.2250  143.8070   94.5600 H   0  0  0  0  0  0  0  0  0  0  0  0
  144.1030  143.1280   96.1990 C   0  0  0  0  0  0  0  0  0  0  0  0
  142.8390  143.2590   96.6640 C   0  0  0  0  0  0  0  0  0  0  0  0
  141.8710  142.2390   96.3750 C   0  0  0  0  0  0  0  0  0  0  0  0
  140.5590  142.2230   96.7680 C   0  0  0  0  0  0  0  0  0  0  0  0
  139.7360  141.1550   96.4090 C   0  0  0  0  0  0  0  0  0  0  0  0
  140.2530  140.0950   95.6460 C   0  0  0  0  0  0  0  0  0  0  0  0
  141.5920  140.1060   95.2410 C   0  0  0  0  0  0  0  0  0  0  0  0
  142.2420  138.7590   94.2700 Cl  0  0  0  0  0  0  0  0  0  0  0  0
  142.4050  141.1560   95.5930 C   0  0  0  0  0  0  0  0  0  0  0  0
  144.1410  141.6230   95.3260 S   0  0  0  0  0  0  0  0  0  0  0  0
  147.3550  145.2870   95.6380 C   0  0  0  0  0  0  0  0  0  0  0  0
  148.6850  144.5370   95.8540 C   0  0  0  0  0  0  0  0  0  0  0  0
  149.6440  144.9260   94.9150 N   0  0  0  0  0  0  0  0  0  0  0  0
  149.8630  146.2840   94.9880 C   0  0  0  0  0  0  0  0  0  0  0  0
  148.6050  147.0570   94.7230 C   0  0  0  0  0  0  0  0  0  0  0  0
  147.5080  146.1610   94.4790 C   0  0  0  0  0  0  0  0  0  0  0  0
  147.8370  145.3350   93.3200 C   0  0  0  0  0  0  0  0  0  0  0  0
  149.1970  144.5930   93.6130 C   0  0  0  0  0  0  0  0  0  0  0  0
  1  2  2  0
  2  3  1  0
  3 15  1  0
 15 16  1  0
 16 17  1  0
 17 18  1  0
 18 19  1  0
 19 20  1  0
 20 21  1  0
 21 22  1  0
  2  5  1  0
  5  6  2  0
  6  7  1  0
  7  8  2  0
  8  9  1  0
  9 10  2  0
 10 11  1  0
 11 12  1  0
 11 13  2  0
 13 14  1  0
 20 15  1  0
 14  5  1  0
 22 17  1  0
 13  7  1  0
  3  4  1  0
M  END
> <meeko>
{"is_sidechain": false}

> <source_group>
CHRFAM7A at B face

> <source_system>
CHRNA7_encenicline

> <source_run>
hybrid_B_face_seed5519_ex32

> <source_seed>
5519

> <vina_pose_rank>
17

> <vina_affinity_kcal_mol>
-5.2110000000000003

> <vina_rmsd_to_crystal_angstrom>
9.8465000000000007

> <minimizedAffinity>
-4.99288

> <CNNscore>
0.0767085105

> <CNNaffinity>
3.7135231495

> <CNN_VS>
0.2848588228

> <CNNaffinity_variance>
0.7943947315

$$$$
CHRNA7_encenicline__hybrid_B_face_seed5519_ex32__pose18


 22 25  0  0  0  0  0  0  0  0999 V2000
  150.0780  135.1060   89.7990 O   0  0  0  0  0  0  0  0  0  0  0  0
  150.1080  136.2810   89.6500 C   0  0  0  0  0  0  0  0  0  0  0  0
  149.6060  136.8640   88.4210 N   0  0  0  0  0  0  0  0  0  0  0  0
  149.6260  137.8400   88.2910 H   0  0  0  0  0  0  0  0  0  0  0  0
  150.6750  137.1710   90.7620 C   0  0  0  0  0  0  0  0  0  0  0  0
  151.2510  136.7380   91.9070 C   0  0  0  0  0  0  0  0  0  0  0  0
  151.7390  137.6960   92.8580 C   0  0  0  0  0  0  0  0  0  0  0  0
  152.3450  137.4220   94.0550 C   0  0  0  0  0  0  0  0  0  0  0  0
  152.7670  138.4660   94.8790 C   0  0  0  0  0  0  0  0  0  0  0  0
  152.5720  139.7990   94.4790 C   0  0  0  0  0  0  0  0  0  0  0  0
  151.9550  140.0850   93.2580 C   0  0  0  0  0  0  0  0  0  0  0  0
  151.7120  141.7790   92.7550 Cl  0  0  0  0  0  0  0  0  0  0  0  0
  151.5380  139.0590   92.4450 C   0  0  0  0  0  0  0  0  0  0  0  0
  150.7190  138.9100   90.8280 S   0  0  0  0  0  0  0  0  0  0  0  0
  149.0640  135.9810   87.3640 C   0  0  0  0  0  0  0  0  0  0  0  0
  147.7800  136.5960   86.7730 C   0  0  0  0  0  0  0  0  0  0  0  0
  147.9050  136.8040   85.3970 N   0  0  0  0  0  0  0  0  0  0  0  0
  148.1860  135.6170   84.7560 C   0  0  0  0  0  0  0  0  0  0  0  0
  149.4630  135.0120   85.2590 C   0  0  0  0  0  0  0  0  0  0  0  0
  150.0380  135.8350   86.2860 C   0  0  0  0  0  0  0  0  0  0  0  0
  150.3020  137.1570   85.7230 C   0  0  0  0  0  0  0  0  0  0  0  0
  148.9500  137.7280   85.1480 C   0  0  0  0  0  0  0  0  0  0  0  0
  1  2  2  0
  2  3  1  0
  3 15  1  0
 15 16  1  0
 16 17  1  0
 17 18  1  0
 18 19  1  0
 19 20  1  0
 20 21  1  0
 21 22  1  0
  2  5  1  0
  5  6  2  0
  6  7  1  0
  7  8  2  0
  8  9  1  0
  9 10  2  0
 10 11  1  0
 11 12  1  0
 11 13  2  0
 13 14  1  0
 20 15  1  0
 14  5  1  0
 22 17  1  0
 13  7  1  0
  3  4  1  0
M  END
> <meeko>
{"is_sidechain": false}

> <source_group>
CHRFAM7A at B face

> <source_system>
CHRNA7_encenicline

> <source_run>
hybrid_B_face_seed5519_ex32

> <source_seed>
5519

> <vina_pose_rank>
18

> <vina_affinity_kcal_mol>
-5.0620000000000003

> <vina_rmsd_to_crystal_angstrom>
9.1128

> <minimizedAffinity>
-4.84372

> <CNNscore>
0.0753280744

> <CNNaffinity>
4.0185761452

> <CNN_VS>
0.3027116060

> <CNNaffinity_variance>
0.5392455459

$$$$
CHRNA7_encenicline__hybrid_B_face_seed5519_ex32__pose19


 22 25  0  0  0  0  0  0  0  0999 V2000
  150.0240  135.1190   89.8600 O   0  0  0  0  0  0  0  0  0  0  0  0
  150.1330  136.2820   89.6650 C   0  0  0  0  0  0  0  0  0  0  0  0
  149.6970  136.8450   88.4020 N   0  0  0  0  0  0  0  0  0  0  0  0
  149.7810  137.8110   88.2340 H   0  0  0  0  0  0  0  0  0  0  0  0
  150.7300  137.1800   90.7540 C   0  0  0  0  0  0  0  0  0  0  0  0
  150.9130  138.5180   90.6640 C   0  0  0  0  0  0  0  0  0  0  0  0
  151.4850  139.2280   91.7730 C   0  0  0  0  0  0  0  0  0  0  0  0
  151.7330  140.5740   91.8410 C   0  0  0  0  0  0  0  0  0  0  0  0
  152.2980  141.1220   92.9930 C   0  0  0  0  0  0  0  0  0  0  0  0
  152.6140  140.2940   94.0830 C   0  0  0  0  0  0  0  0  0  0  0  0
  152.3630  138.9200   94.0200 C   0  0  0  0  0  0  0  0  0  0  0  0
  152.7640  137.8750   95.4080 Cl  0  0  0  0  0  0  0  0  0  0  0  0
  151.8060  138.3770   92.8870 C   0  0  0  0  0  0  0  0  0  0  0  0
  151.3060  136.7200   92.3310 S   0  0  0  0  0  0  0  0  0  0  0  0
  149.1230  135.9550   87.3670 C   0  0  0  0  0  0  0  0  0  0  0  0
  147.8290  136.5720   86.8020 C   0  0  0  0  0  0  0  0  0  0  0  0
  147.9210  136.7660   85.4220 N   0  0  0  0  0  0  0  0  0  0  0  0
  148.1780  135.5710   84.7860 C   0  0  0  0  0  0  0  0  0  0  0  0
  149.4640  134.9630   85.2630 C   0  0  0  0  0  0  0  0  0  0  0  0
  150.0690  135.7920   86.2670 C   0  0  0  0  0  0  0  0  0  0  0  0
  150.3270  137.1070   85.6850 C   0  0  0  0  0  0  0  0  0  0  0  0
  148.9650  137.6810   85.1380 C   0  0  0  0  0  0  0  0  0  0  0  0
  1  2  2  0
  2  3  1  0
  3 15  1  0
 15 16  1  0
 16 17  1  0
 17 18  1  0
 18 19  1  0
 19 20  1  0
 20 21  1  0
 21 22  1  0
  2  5  1  0
  5  6  2  0
  6  7  1  0
  7  8  2  0
  8  9  1  0
  9 10  2  0
 10 11  1  0
 11 12  1  0
 11 13  2  0
 13 14  1  0
 20 15  1  0
 14  5  1  0
 22 17  1  0
 13  7  1  0
  3  4  1  0
M  END
> <meeko>
{"is_sidechain": false}

> <source_group>
CHRFAM7A at B face

> <source_system>
CHRNA7_encenicline

> <source_run>
hybrid_B_face_seed5519_ex32

> <source_seed>
5519

> <vina_pose_rank>
19

> <vina_affinity_kcal_mol>
-4.9710000000000001

> <vina_rmsd_to_crystal_angstrom>
9.2187999999999999

> <minimizedAffinity>
-4.73032

> <CNNscore>
0.0710861310

> <CNNaffinity>
3.8474848270

> <CNN_VS>
0.2735027969

> <CNNaffinity_variance>
0.5913036466

$$$$
