CHRNA7_encenicline__canonical_obabel_seed3301_ex32__pose01
     RDKit          3D

 38 41  0  0  0  0  0  0  0  0999 V2000
  143.6370  140.7360   90.0330 O   0  0  0  0  0  0  0  0  0  0  0  0
  143.0860  139.7200   90.2910 C   0  0  0  0  0  0  0  0  0  0  0  0
  141.6410  139.6420   90.2060 N   0  0  0  0  0  0  0  0  0  0  0  0
  140.8690  140.8390   89.7990 C   0  0  1  0  0  0  0  0  0  0  0  0
  140.5220  140.7560   88.3000 C   0  0  0  0  0  0  0  0  0  0  0  0
  139.1410  140.8020   88.0970 N   0  0  0  0  0  0  0  0  0  0  0  0
  138.6160  141.9600   88.6290 C   0  0  0  0  0  0  0  0  0  0  0  0
  138.8780  142.0530   90.1030 C   0  0  0  0  0  0  0  0  0  0  0  0
  139.6210  140.9090   90.5530 C   0  0  0  0  0  0  0  0  0  0  0  0
  138.8400  139.7090   90.2620 C   0  0  0  0  0  0  0  0  0  0  0  0
  138.5310  139.6840   88.7170 C   0  0  0  0  0  0  0  0  0  0  0  0
  143.9090  138.4960   90.7090 C   0  0  0  0  0  0  0  0  0  0  0  0
  143.4160  137.2670   90.9840 C   0  0  0  0  0  0  0  0  0  0  0  0
  144.3150  136.2140   91.3620 C   0  0  0  0  0  0  0  0  0  0  0  0
  143.9780  134.9220   91.6680 C   0  0  0  0  0  0  0  0  0  0  0  0
  144.9690  134.0060   92.0210 C   0  0  0  0  0  0  0  0  0  0  0  0
  146.3150  134.4090   92.0630 C   0  0  0  0  0  0  0  0  0  0  0  0
  146.6660  135.7260   91.7510 C   0  0  0  0  0  0  0  0  0  0  0  0
  148.3750  136.2310   91.8030 Cl  0  0  0  0  0  0  0  0  0  0  0  0
  145.6910  136.6300   91.4020 C   0  0  0  0  0  0  0  0  0  0  0  0
  145.6320  138.3840   90.9280 S   0  0  0  0  0  0  0  0  0  0  0  0
  141.1760  138.8000   90.4160 H   0  0  0  0  0  0  0  0  0  0  0  0
  141.4815  141.7308   89.9979 H   0  0  0  0  0  0  0  0  0  0  0  0
  140.9899  141.6026   87.7762 H   0  0  0  0  0  0  0  0  0  0  0  0
  140.8996  139.8001   87.9079 H   0  0  0  0  0  0  0  0  0  0  0  0
  139.0763  142.8246   88.1284 H   0  0  0  0  0  0  0  0  0  0  0  0
  137.5275  141.9513   88.4707 H   0  0  0  0  0  0  0  0  0  0  0  0
  139.4560  142.9654   90.3115 H   0  0  0  0  0  0  0  0  0  0  0  0
  137.9157  142.0851   90.6350 H   0  0  0  0  0  0  0  0  0  0  0  0
  139.8272  140.9853   91.6308 H   0  0  0  0  0  0  0  0  0  0  0  0
  139.4152  138.8138   90.5411 H   0  0  0  0  0  0  0  0  0  0  0  0
  137.9020  139.7181   90.8365 H   0  0  0  0  0  0  0  0  0  0  0  0
  138.9301  138.7578   88.2779 H   0  0  0  0  0  0  0  0  0  0  0  0
  137.4431  139.7246   88.5592 H   0  0  0  0  0  0  0  0  0  0  0  0
  142.3347  137.0760   90.9185 H   0  0  0  0  0  0  0  0  0  0  0  0
  142.9247  134.6065   91.6353 H   0  0  0  0  0  0  0  0  0  0  0  0
  144.6973  132.9687   92.2664 H   0  0  0  0  0  0  0  0  0  0  0  0
  147.0951  133.6855   92.3424 H   0  0  0  0  0  0  0  0  0  0  0  0
  1  2  2  0
  2  3  1  0
  3  4  1  0
  4  5  1  0
  5  6  1  0
  6  7  1  0
  7  8  1  0
  8  9  1  0
  9 10  1  0
 10 11  1  0
  2 12  1  0
 12 13  2  0
 13 14  1  0
 14 15  2  0
 15 16  1  0
 16 17  2  0
 17 18  1  0
 18 19  1  0
 18 20  2  0
 20 21  1  0
  9  4  1  0
 21 12  1  0
 11  6  1  0
 20 14  1  0
  3 22  1  0
  4 23  1  6
  5 24  1  0
  5 25  1  0
  7 26  1  0
  7 27  1  0
  8 28  1  0
  8 29  1  0
  9 30  1  0
 10 31  1  0
 10 32  1  0
 11 33  1  0
 11 34  1  0
 13 35  1  0
 15 36  1  0
 16 37  1  0
 17 38  1  0
M  END
>  <meeko>  (1)
{"is_sidechain": false}

>  <source_group>  (1)
CHRNA7 canonical

>  <source_system>  (1)
CHRNA7_encenicline

>  <source_run>  (1)
canonical_obabel_seed3301_ex32

>  <source_seed>  (1)
3301

>  <vina_pose_rank>  (1)
1

>  <vina_affinity_kcal_mol>  (1)
-9.8569999999999993

>  <vina_rmsd_to_crystal_angstrom>  (1)
0.31040000000000001

$$$$
CHRNA7_encenicline__canonical_obabel_seed3301_ex32__pose02
     RDKit          3D

 38 41  0  0  0  0  0  0  0  0999 V2000
  143.8360  140.8700   89.9580 O   0  0  0  0  0  0  0  0  0  0  0  0
  143.3450  139.8220   90.2110 C   0  0  0  0  0  0  0  0  0  0  0  0
  141.9120  139.6470   90.0770 N   0  0  0  0  0  0  0  0  0  0  0  0
  141.0780  140.7850   89.6280 C   0  0  1  0  0  0  0  0  0  0  0  0
  140.6550  140.5790   88.1590 C   0  0  0  0  0  0  0  0  0  0  0  0
  139.2640  140.5660   88.0300 N   0  0  0  0  0  0  0  0  0  0  0  0
  138.7270  141.7430   88.5050 C   0  0  0  0  0  0  0  0  0  0  0  0
  139.0640  141.9550   89.9510 C   0  0  0  0  0  0  0  0  0  0  0  0
  139.8690  140.8720   90.4420 C   0  0  0  0  0  0  0  0  0  0  0  0
  139.1180  139.6290   90.2830 C   0  0  0  0  0  0  0  0  0  0  0  0
  138.7280  139.4790   88.7640 C   0  0  0  0  0  0  0  0  0  0  0  0
  144.2320  138.6610   90.6740 C   0  0  0  0  0  0  0  0  0  0  0  0
  145.5690  138.7180   90.8760 C   0  0  0  0  0  0  0  0  0  0  0  0
  146.2670  137.5440   91.3140 C   0  0  0  0  0  0  0  0  0  0  0  0
  147.6100  137.4370   91.5640 C   0  0  0  0  0  0  0  0  0  0  0  0
  148.1470  136.2200   91.9860 C   0  0  0  0  0  0  0  0  0  0  0  0
  147.3110  135.1040   92.1540 C   0  0  0  0  0  0  0  0  0  0  0  0
  145.9400  135.2060   91.9010 C   0  0  0  0  0  0  0  0  0  0  0  0
  144.8830  133.7860   92.1190 Cl  0  0  0  0  0  0  0  0  0  0  0  0
  145.4080  136.4030   91.4860 C   0  0  0  0  0  0  0  0  0  0  0  0
  143.7590  137.0270   91.0450 S   0  0  0  0  0  0  0  0  0  0  0  0
  141.4960  138.7790   90.2830 H   0  0  0  0  0  0  0  0  0  0  0  0
  141.6683  141.7078   89.7283 H   0  0  0  0  0  0  0  0  0  0  0  0
  141.0640  141.3984   87.5497 H   0  0  0  0  0  0  0  0  0  0  0  0
  141.0452  139.6089   87.8173 H   0  0  0  0  0  0  0  0  0  0  0  0
  139.1281  142.5820   87.9175 H   0  0  0  0  0  0  0  0  0  0  0  0
  137.6326  141.6871   88.4096 H   0  0  0  0  0  0  0  0  0  0  0  0
  139.6203  142.8978   90.0589 H   0  0  0  0  0  0  0  0  0  0  0  0
  138.1309  141.9976   90.5320 H   0  0  0  0  0  0  0  0  0  0  0  0
  140.1274  141.0357   91.4986 H   0  0  0  0  0  0  0  0  0  0  0  0
  139.7396  138.7763   90.5936 H   0  0  0  0  0  0  0  0  0  0  0  0
  138.2124  139.6503   90.9070 H   0  0  0  0  0  0  0  0  0  0  0  0
  139.1354  138.5354   88.3721 H   0  0  0  0  0  0  0  0  0  0  0  0
  137.6325  139.4740   88.6651 H   0  0  0  0  0  0  0  0  0  0  0  0
  146.1160  139.6571   90.7057 H   0  0  0  0  0  0  0  0  0  0  0  0
  148.2651  138.3107   91.4320 H   0  0  0  0  0  0  0  0  0  0  0  0
  149.2251  136.1348   92.1871 H   0  0  0  0  0  0  0  0  0  0  0  0
  147.7369  134.1457   92.4861 H   0  0  0  0  0  0  0  0  0  0  0  0
  1  2  2  0
  2  3  1  0
  3  4  1  0
  4  5  1  0
  5  6  1  0
  6  7  1  0
  7  8  1  0
  8  9  1  0
  9 10  1  0
 10 11  1  0
  2 12  1  0
 12 13  2  0
 13 14  1  0
 14 15  2  0
 15 16  1  0
 16 17  2  0
 17 18  1  0
 18 19  1  0
 18 20  2  0
 20 21  1  0
  9  4  1  0
 21 12  1  0
 11  6  1  0
 20 14  1  0
  3 22  1  0
  4 23  1  6
  5 24  1  0
  5 25  1  0
  7 26  1  0
  7 27  1  0
  8 28  1  0
  8 29  1  0
  9 30  1  0
 10 31  1  0
 10 32  1  0
 11 33  1  0
 11 34  1  0
 13 35  1  0
 15 36  1  0
 16 37  1  0
 17 38  1  0
M  END
>  <meeko>  (2)
{"is_sidechain": false}

>  <source_group>  (2)
CHRNA7 canonical

>  <source_system>  (2)
CHRNA7_encenicline

>  <source_run>  (2)
canonical_obabel_seed3301_ex32

>  <source_seed>  (2)
3301

>  <vina_pose_rank>  (2)
2

>  <vina_affinity_kcal_mol>  (2)
-9.1110000000000007

>  <vina_rmsd_to_crystal_angstrom>  (2)
1.8476999999999999

$$$$
CHRNA7_encenicline__canonical_obabel_seed3301_ex32__pose03
     RDKit          3D

 38 41  0  0  0  0  0  0  0  0999 V2000
  140.1570  136.6400   90.2180 O   0  0  0  0  0  0  0  0  0  0  0  0
  140.9950  137.4500   90.4300 C   0  0  0  0  0  0  0  0  0  0  0  0
  140.6800  138.8600   90.3140 N   0  0  0  0  0  0  0  0  0  0  0  0
  139.3110  139.2710   89.9270 C   0  0  1  0  0  0  0  0  0  0  0  0
  138.8600  140.4700   90.7850 C   0  0  0  0  0  0  0  0  0  0  0  0
  138.5370  141.5710   89.9870 N   0  0  0  0  0  0  0  0  0  0  0  0
  137.5400  141.2410   89.0950 C   0  0  0  0  0  0  0  0  0  0  0  0
  137.9600  140.1150   88.1970 C   0  0  0  0  0  0  0  0  0  0  0  0
  139.2890  139.6800   88.5250 C   0  0  0  0  0  0  0  0  0  0  0  0
  140.1980  140.8120   88.3620 C   0  0  0  0  0  0  0  0  0  0  0  0
  139.6840  141.9930   89.2710 C   0  0  0  0  0  0  0  0  0  0  0  0
  142.4040  136.9960   90.8290 C   0  0  0  0  0  0  0  0  0  0  0  0
  142.7750  135.7270   91.1160 C   0  0  0  0  0  0  0  0  0  0  0  0
  144.1370  135.4540   91.4740 C   0  0  0  0  0  0  0  0  0  0  0  0
  144.6700  134.2320   91.7890 C   0  0  0  0  0  0  0  0  0  0  0  0
  146.0210  134.1230   92.1190 C   0  0  0  0  0  0  0  0  0  0  0  0
  146.8360  135.2680   92.1290 C   0  0  0  0  0  0  0  0  0  0  0  0
  146.2990  136.5180   91.8080 C   0  0  0  0  0  0  0  0  0  0  0  0
  147.3380  137.9670   91.8200 Cl  0  0  0  0  0  0  0  0  0  0  0  0
  144.9680  136.6280   91.4820 C   0  0  0  0  0  0  0  0  0  0  0  0
  143.8360  137.9690   91.0080 S   0  0  0  0  0  0  0  0  0  0  0  0
  141.3700  139.5390   90.4910 H   0  0  0  0  0  0  0  0  0  0  0  0
  138.6356  138.4168   90.0825 H   0  0  0  0  0  0  0  0  0  0  0  0
  137.9751  140.1794   91.3703 H   0  0  0  0  0  0  0  0  0  0  0  0
  139.6894  140.7536   91.4496 H   0  0  0  0  0  0  0  0  0  0  0  0
  136.6442  140.9363   89.6560 H   0  0  0  0  0  0  0  0  0  0  0  0
  137.3286  142.1216   88.4706 H   0  0  0  0  0  0  0  0  0  0  0  0
  137.2626  139.2735   88.3210 H   0  0  0  0  0  0  0  0  0  0  0  0
  137.9475  140.4670   87.1549 H   0  0  0  0  0  0  0  0  0  0  0  0
  139.5906  138.8447   87.8759 H   0  0  0  0  0  0  0  0  0  0  0  0
  141.2135  140.5210   88.6688 H   0  0  0  0  0  0  0  0  0  0  0  0
  140.2253  141.1281   87.3087 H   0  0  0  0  0  0  0  0  0  0  0  0
  140.4740  142.2808   89.9803 H   0  0  0  0  0  0  0  0  0  0  0  0
  139.4262  142.8566   88.6403 H   0  0  0  0  0  0  0  0  0  0  0  0
  142.0382  134.9112   91.0752 H   0  0  0  0  0  0  0  0  0  0  0  0
  144.0321  133.3359   91.7817 H   0  0  0  0  0  0  0  0  0  0  0  0
  146.4483  133.1413   92.3713 H   0  0  0  0  0  0  0  0  0  0  0  0
  147.9008  135.1801   92.3905 H   0  0  0  0  0  0  0  0  0  0  0  0
  1  2  2  0
  2  3  1  0
  3  4  1  0
  4  5  1  0
  5  6  1  0
  6  7  1  0
  7  8  1  0
  8  9  1  0
  9 10  1  0
 10 11  1  0
  2 12  1  0
 12 13  2  0
 13 14  1  0
 14 15  2  0
 15 16  1  0
 16 17  2  0
 17 18  1  0
 18 19  1  0
 18 20  2  0
 20 21  1  0
  9  4  1  0
 21 12  1  0
 11  6  1  0
 20 14  1  0
  3 22  1  0
  4 23  1  6
  5 24  1  0
  5 25  1  0
  7 26  1  0
  7 27  1  0
  8 28  1  0
  8 29  1  0
  9 30  1  0
 10 31  1  0
 10 32  1  0
 11 33  1  0
 11 34  1  0
 13 35  1  0
 15 36  1  0
 16 37  1  0
 17 38  1  0
M  END
>  <meeko>  (3)
{"is_sidechain": false}

>  <source_group>  (3)
CHRNA7 canonical

>  <source_system>  (3)
CHRNA7_encenicline

>  <source_run>  (3)
canonical_obabel_seed3301_ex32

>  <source_seed>  (3)
3301

>  <vina_pose_rank>  (3)
3

>  <vina_affinity_kcal_mol>  (3)
-7.9180000000000001

>  <vina_rmsd_to_crystal_angstrom>  (3)
2.2738

$$$$
CHRNA7_encenicline__canonical_obabel_seed3301_ex32__pose04
     RDKit          3D

 38 41  0  0  0  0  0  0  0  0999 V2000
  145.8110  138.8420   93.0140 O   0  0  0  0  0  0  0  0  0  0  0  0
  145.5500  138.3980   91.9470 C   0  0  0  0  0  0  0  0  0  0  0  0
  146.5650  137.6870   91.1950 N   0  0  0  0  0  0  0  0  0  0  0  0
  147.9210  137.5290   91.7700 C   0  0  1  0  0  0  0  0  0  0  0  0
  148.2170  136.0360   92.0130 C   0  0  0  0  0  0  0  0  0  0  0  0
  149.3540  135.6250   91.3120 N   0  0  0  0  0  0  0  0  0  0  0  0
  150.4450  136.3790   91.6840 C   0  0  0  0  0  0  0  0  0  0  0  0
  150.2240  137.8370   91.4090 C   0  0  0  0  0  0  0  0  0  0  0  0
  148.9210  138.0470   90.8420 C   0  0  0  0  0  0  0  0  0  0  0  0
  148.8320  137.2870   89.5980 C   0  0  0  0  0  0  0  0  0  0  0  0
  149.1350  135.7740   89.9200 C   0  0  0  0  0  0  0  0  0  0  0  0
  144.1390  138.5770   91.3770 C   0  0  0  0  0  0  0  0  0  0  0  0
  143.2140  137.6000   91.2320 C   0  0  0  0  0  0  0  0  0  0  0  0
  141.9280  137.9210   90.6810 C   0  0  0  0  0  0  0  0  0  0  0  0
  140.8890  137.0530   90.4720 C   0  0  0  0  0  0  0  0  0  0  0  0
  139.6920  137.5150   89.9230 C   0  0  0  0  0  0  0  0  0  0  0  0
  139.5530  138.8720   89.5840 C   0  0  0  0  0  0  0  0  0  0  0  0
  140.6100  139.7630   89.7960 C   0  0  0  0  0  0  0  0  0  0  0  0
  140.4260  141.4840   89.3660 Cl  0  0  0  0  0  0  0  0  0  0  0  0
  141.7890  139.3100   90.3360 C   0  0  0  0  0  0  0  0  0  0  0  0
  143.3930  140.0360   90.7890 S   0  0  0  0  0  0  0  0  0  0  0  0
  146.3560  137.3130   90.3090 H   0  0  0  0  0  0  0  0  0  0  0  0
  147.9627  138.0842   92.7187 H   0  0  0  0  0  0  0  0  0  0  0  0
  148.3804  135.8731   93.0885 H   0  0  0  0  0  0  0  0  0  0  0  0
  147.3577  135.4485   91.6576 H   0  0  0  0  0  0  0  0  0  0  0  0
  150.6246  136.2413   92.7605 H   0  0  0  0  0  0  0  0  0  0  0  0
  151.3128  136.0443   91.0968 H   0  0  0  0  0  0  0  0  0  0  0  0
  150.3047  138.3999   92.3506 H   0  0  0  0  0  0  0  0  0  0  0  0
  150.9847  138.1850   90.6946 H   0  0  0  0  0  0  0  0  0  0  0  0
  148.7524  139.1177   90.6545 H   0  0  0  0  0  0  0  0  0  0  0  0
  147.8209  137.3822   89.1755 H   0  0  0  0  0  0  0  0  0  0  0  0
  149.5576  137.6715   88.8661 H   0  0  0  0  0  0  0  0  0  0  0  0
  148.2785  135.1549   89.6147 H   0  0  0  0  0  0  0  0  0  0  0  0
  150.0320  135.4532   89.3700 H   0  0  0  0  0  0  0  0  0  0  0  0
  143.4458  136.5680   91.5340 H   0  0  0  0  0  0  0  0  0  0  0  0
  140.9983  135.9910   90.7371 H   0  0  0  0  0  0  0  0  0  0  0  0
  138.8579  136.8177   89.7557 H   0  0  0  0  0  0  0  0  0  0  0  0
  138.6093  139.2346   89.1503 H   0  0  0  0  0  0  0  0  0  0  0  0
  1  2  2  0
  2  3  1  0
  3  4  1  0
  4  5  1  0
  5  6  1  0
  6  7  1  0
  7  8  1  0
  8  9  1  0
  9 10  1  0
 10 11  1  0
  2 12  1  0
 12 13  2  0
 13 14  1  0
 14 15  2  0
 15 16  1  0
 16 17  2  0
 17 18  1  0
 18 19  1  0
 18 20  2  0
 20 21  1  0
  9  4  1  0
 21 12  1  0
 11  6  1  0
 20 14  1  0
  3 22  1  0
  4 23  1  1
  5 24  1  0
  5 25  1  0
  7 26  1  0
  7 27  1  0
  8 28  1  0
  8 29  1  0
  9 30  1  0
 10 31  1  0
 10 32  1  0
 11 33  1  0
 11 34  1  0
 13 35  1  0
 15 36  1  0
 16 37  1  0
 17 38  1  0
M  END
>  <meeko>  (4)
{"is_sidechain": false}

>  <source_group>  (4)
CHRNA7 canonical

>  <source_system>  (4)
CHRNA7_encenicline

>  <source_run>  (4)
canonical_obabel_seed3301_ex32

>  <source_seed>  (4)
3301

>  <vina_pose_rank>  (4)
4

>  <vina_affinity_kcal_mol>  (4)
-7.6429999999999998

>  <vina_rmsd_to_crystal_angstrom>  (4)
7.9919000000000002

$$$$
CHRNA7_encenicline__canonical_obabel_seed3301_ex32__pose05
     RDKit          3D

 38 41  0  0  0  0  0  0  0  0999 V2000
  146.1860  138.6910   92.9830 O   0  0  0  0  0  0  0  0  0  0  0  0
  145.9020  138.2890   91.9060 C   0  0  0  0  0  0  0  0  0  0  0  0
  146.9370  137.7710   91.0340 N   0  0  0  0  0  0  0  0  0  0  0  0
  148.3420  137.7540   91.5010 C   0  0  1  0  0  0  0  0  0  0  0  0
  148.6990  136.3560   92.0440 C   0  0  0  0  0  0  0  0  0  0  0  0
  149.7790  135.8040   91.3510 N   0  0  0  0  0  0  0  0  0  0  0  0
  150.8790  136.6290   91.4420 C   0  0  0  0  0  0  0  0  0  0  0  0
  150.5950  137.9850   90.8680 C   0  0  0  0  0  0  0  0  0  0  0  0
  149.2420  138.0550   90.3910 C   0  0  0  0  0  0  0  0  0  0  0  0
  149.0620  137.0330   89.3640 C   0  0  0  0  0  0  0  0  0  0  0  0
  149.4330  135.6340   89.9880 C   0  0  0  0  0  0  0  0  0  0  0  0
  144.4390  138.3180   91.4480 C   0  0  0  0  0  0  0  0  0  0  0  0
  143.7450  139.4220   91.0870 C   0  0  0  0  0  0  0  0  0  0  0  0
  142.3760  139.2910   90.6770 C   0  0  0  0  0  0  0  0  0  0  0  0
  141.5410  140.3030   90.2820 C   0  0  0  0  0  0  0  0  0  0  0  0
  140.2260  140.0200   89.9110 C   0  0  0  0  0  0  0  0  0  0  0  0
  139.7580  138.6950   89.9420 C   0  0  0  0  0  0  0  0  0  0  0  0
  140.6050  137.6580   90.3430 C   0  0  0  0  0  0  0  0  0  0  0  0
  140.0050  135.9790   90.3790 Cl  0  0  0  0  0  0  0  0  0  0  0  0
  141.9000  137.9340   90.7100 C   0  0  0  0  0  0  0  0  0  0  0  0
  143.3380  136.9810   91.2830 S   0  0  0  0  0  0  0  0  0  0  0  0
  146.7090  137.4330   90.1380 H   0  0  0  0  0  0  0  0  0  0  0  0
  148.4527  138.5090   92.2933 H   0  0  0  0  0  0  0  0  0  0  0  0
  148.9621  136.4414   93.1087 H   0  0  0  0  0  0  0  0  0  0  0  0
  147.8275  135.6982   91.9105 H   0  0  0  0  0  0  0  0  0  0  0  0
  151.1569  136.7395   92.5006 H   0  0  0  0  0  0  0  0  0  0  0  0
  151.7004  136.1753   90.8681 H   0  0  0  0  0  0  0  0  0  0  0  0
  150.7441  138.7467   91.6475 H   0  0  0  0  0  0  0  0  0  0  0  0
  151.2793  138.1658   90.0260 H   0  0  0  0  0  0  0  0  0  0  0  0
  149.0301  139.0547   89.9840 H   0  0  0  0  0  0  0  0  0  0  0  0
  148.0148  137.0243   89.0274 H   0  0  0  0  0  0  0  0  0  0  0  0
  149.7083  137.2460   88.4998 H   0  0  0  0  0  0  0  0  0  0  0  0
  148.5697  134.9568   89.9102 H   0  0  0  0  0  0  0  0  0  0  0  0
  150.2860  135.2031   89.4432 H   0  0  0  0  0  0  0  0  0  0  0  0
  144.2259  140.4111   91.1076 H   0  0  0  0  0  0  0  0  0  0  0  0
  141.9078  141.3398   90.2573 H   0  0  0  0  0  0  0  0  0  0  0  0
  139.5562  140.8331   89.5946 H   0  0  0  0  0  0  0  0  0  0  0  0
  138.7210  138.4733   89.6495 H   0  0  0  0  0  0  0  0  0  0  0  0
  1  2  2  0
  2  3  1  0
  3  4  1  0
  4  5  1  0
  5  6  1  0
  6  7  1  0
  7  8  1  0
  8  9  1  0
  9 10  1  0
 10 11  1  0
  2 12  1  0
 12 13  2  0
 13 14  1  0
 14 15  2  0
 15 16  1  0
 16 17  2  0
 17 18  1  0
 18 19  1  0
 18 20  2  0
 20 21  1  0
  9  4  1  0
 21 12  1  0
 11  6  1  0
 20 14  1  0
  3 22  1  0
  4 23  1  1
  5 24  1  0
  5 25  1  0
  7 26  1  0
  7 27  1  0
  8 28  1  0
  8 29  1  0
  9 30  1  0
 10 31  1  0
 10 32  1  0
 11 33  1  0
 11 34  1  0
 13 35  1  0
 15 36  1  0
 16 37  1  0
 17 38  1  0
M  END
>  <meeko>  (5)
{"is_sidechain": false}

>  <source_group>  (5)
CHRNA7 canonical

>  <source_system>  (5)
CHRNA7_encenicline

>  <source_run>  (5)
canonical_obabel_seed3301_ex32

>  <source_seed>  (5)
3301

>  <vina_pose_rank>  (5)
5

>  <vina_affinity_kcal_mol>  (5)
-7.524

>  <vina_rmsd_to_crystal_angstrom>  (5)
8.1496999999999993

$$$$
CHRNA7_encenicline__canonical_obabel_seed3301_ex32__pose06
     RDKit          3D

 38 41  0  0  0  0  0  0  0  0999 V2000
  144.8630  140.7180   91.1560 O   0  0  0  0  0  0  0  0  0  0  0  0
  144.2540  139.7630   90.8100 C   0  0  0  0  0  0  0  0  0  0  0  0
  144.8590  138.4490   90.9070 N   0  0  0  0  0  0  0  0  0  0  0  0
  146.2360  138.3180   91.4360 C   0  0  1  0  0  0  0  0  0  0  0  0
  146.3070  137.1450   92.4330 C   0  0  0  0  0  0  0  0  0  0  0  0
  147.2450  136.1920   92.0280 N   0  0  0  0  0  0  0  0  0  0  0  0
  148.4910  136.7690   91.9040 C   0  0  0  0  0  0  0  0  0  0  0  0
  148.4820  137.8800   90.8960 C   0  0  0  0  0  0  0  0  0  0  0  0
  147.1670  138.0460   90.3440 C   0  0  0  0  0  0  0  0  0  0  0  0
  146.7730  136.7930   89.7060 C   0  0  0  0  0  0  0  0  0  0  0  0
  146.8590  135.6430   90.7810 C   0  0  0  0  0  0  0  0  0  0  0  0
  142.8300  139.9280   90.2660 C   0  0  0  0  0  0  0  0  0  0  0  0
  141.7420  140.2770   90.9910 C   0  0  0  0  0  0  0  0  0  0  0  0
  140.4690  140.3940   90.3400 C   0  0  0  0  0  0  0  0  0  0  0  0
  139.2790  140.7380   90.9260 C   0  0  0  0  0  0  0  0  0  0  0  0
  138.1170  140.8100   90.1590 C   0  0  0  0  0  0  0  0  0  0  0  0
  138.1650  140.5280   88.7830 C   0  0  0  0  0  0  0  0  0  0  0  0
  139.3760  140.1770   88.1770 C   0  0  0  0  0  0  0  0  0  0  0  0
  139.4310  139.8230   86.4310 Cl  0  0  0  0  0  0  0  0  0  0  0  0
  140.5220  140.1060   88.9320 C   0  0  0  0  0  0  0  0  0  0  0  0
  142.2720  139.7130   88.6320 S   0  0  0  0  0  0  0  0  0  0  0  0
  144.3590  137.6500   90.6230 H   0  0  0  0  0  0  0  0  0  0  0  0
  146.5058  139.2590   91.9377 H   0  0  0  0  0  0  0  0  0  0  0  0
  146.5932  137.5320   93.4221 H   0  0  0  0  0  0  0  0  0  0  0  0
  145.3186  136.6641   92.4750 H   0  0  0  0  0  0  0  0  0  0  0  0
  148.7966  137.1738   92.8801 H   0  0  0  0  0  0  0  0  0  0  0  0
  149.1972  135.9977   91.5628 H   0  0  0  0  0  0  0  0  0  0  0  0
  148.7901  138.8157   91.3855 H   0  0  0  0  0  0  0  0  0  0  0  0
  149.1803  137.6298   90.0838 H   0  0  0  0  0  0  0  0  0  0  0  0
  147.1580  138.8706   89.6160 H   0  0  0  0  0  0  0  0  0  0  0  0
  145.7424  136.8748   89.3301 H   0  0  0  0  0  0  0  0  0  0  0  0
  147.4400  136.5720   88.8597 H   0  0  0  0  0  0  0  0  0  0  0  0
  145.8757  135.1602   90.8813 H   0  0  0  0  0  0  0  0  0  0  0  0
  147.6022  134.8973   90.4623 H   0  0  0  0  0  0  0  0  0  0  0  0
  141.8329  140.4693   92.0702 H   0  0  0  0  0  0  0  0  0  0  0  0
  139.2405  140.9577   92.0032 H   0  0  0  0  0  0  0  0  0  0  0  0
  137.1628  141.0875   90.6307 H   0  0  0  0  0  0  0  0  0  0  0  0
  137.2466  140.5835   88.1801 H   0  0  0  0  0  0  0  0  0  0  0  0
  1  2  2  0
  2  3  1  0
  3  4  1  0
  4  5  1  0
  5  6  1  0
  6  7  1  0
  7  8  1  0
  8  9  1  0
  9 10  1  0
 10 11  1  0
  2 12  1  0
 12 13  2  0
 13 14  1  0
 14 15  2  0
 15 16  1  0
 16 17  2  0
 17 18  1  0
 18 19  1  0
 18 20  2  0
 20 21  1  0
  9  4  1  0
 21 12  1  0
 11  6  1  0
 20 14  1  0
  3 22  1  0
  4 23  1  1
  5 24  1  0
  5 25  1  0
  7 26  1  0
  7 27  1  0
  8 28  1  0
  8 29  1  0
  9 30  1  0
 10 31  1  0
 10 32  1  0
 11 33  1  0
 11 34  1  0
 13 35  1  0
 15 36  1  0
 16 37  1  0
 17 38  1  0
M  END
>  <meeko>  (6)
{"is_sidechain": false}

>  <source_group>  (6)
CHRNA7 canonical

>  <source_system>  (6)
CHRNA7_encenicline

>  <source_run>  (6)
canonical_obabel_seed3301_ex32

>  <source_seed>  (6)
3301

>  <vina_pose_rank>  (6)
6

>  <vina_affinity_kcal_mol>  (6)
-7.3869999999999996

>  <vina_rmsd_to_crystal_angstrom>  (6)
7.8219000000000003

$$$$
CHRNA7_encenicline__canonical_obabel_seed3301_ex32__pose07
     RDKit          3D

 38 41  0  0  0  0  0  0  0  0999 V2000
  146.4660  135.4400   92.2360 O   0  0  0  0  0  0  0  0  0  0  0  0
  146.4290  136.4480   91.6170 C   0  0  0  0  0  0  0  0  0  0  0  0
  147.6630  137.0820   91.1950 N   0  0  0  0  0  0  0  0  0  0  0  0
  148.9590  136.4580   91.5480 C   0  0  1  0  0  0  0  0  0  0  0  0
  149.4830  135.6280   90.3600 C   0  0  0  0  0  0  0  0  0  0  0  0
  150.7400  136.0760   89.9450 N   0  0  0  0  0  0  0  0  0  0  0  0
  151.6400  136.0120   90.9870 C   0  0  0  0  0  0  0  0  0  0  0  0
  151.1980  136.8550   92.1450 C   0  0  0  0  0  0  0  0  0  0  0  0
  149.9440  137.4910   91.8530 C   0  0  0  0  0  0  0  0  0  0  0  0
  150.1160  138.3270   90.6670 C   0  0  0  0  0  0  0  0  0  0  0  0
  150.6430  137.4160   89.4940 C   0  0  0  0  0  0  0  0  0  0  0  0
  145.0730  137.0710   91.2660 C   0  0  0  0  0  0  0  0  0  0  0  0
  144.8450  138.3820   91.0180 C   0  0  0  0  0  0  0  0  0  0  0  0
  143.5160  138.8190   90.6990 C   0  0  0  0  0  0  0  0  0  0  0  0
  143.1210  140.1010   90.4220 C   0  0  0  0  0  0  0  0  0  0  0  0
  141.7850  140.3730   90.1280 C   0  0  0  0  0  0  0  0  0  0  0  0
  140.8420  139.3310   90.1170 C   0  0  0  0  0  0  0  0  0  0  0  0
  141.2380  138.0200   90.3970 C   0  0  0  0  0  0  0  0  0  0  0  0
  140.0380  136.7010   90.3780 Cl  0  0  0  0  0  0  0  0  0  0  0  0
  142.5540  137.7490   90.6870 C   0  0  0  0  0  0  0  0  0  0  0  0
  143.5340  136.2750   91.1020 S   0  0  0  0  0  0  0  0  0  0  0  0
  147.6400  137.9190   90.6780 H   0  0  0  0  0  0  0  0  0  0  0  0
  148.8058  135.8113   92.4245 H   0  0  0  0  0  0  0  0  0  0  0  0
  149.5607  134.5741   90.6653 H   0  0  0  0  0  0  0  0  0  0  0  0
  148.7799  135.7384   89.5213 H   0  0  0  0  0  0  0  0  0  0  0  0
  151.7295  134.9670   91.3188 H   0  0  0  0  0  0  0  0  0  0  0  0
  152.6086  136.3933   90.6314 H   0  0  0  0  0  0  0  0  0  0  0  0
  151.0824  136.2174   93.0339 H   0  0  0  0  0  0  0  0  0  0  0  0
  151.9559  137.6303   92.3310 H   0  0  0  0  0  0  0  0  0  0  0  0
  149.6129  138.0970   92.7092 H   0  0  0  0  0  0  0  0  0  0  0  0
  149.1523  138.7763   90.3853 H   0  0  0  0  0  0  0  0  0  0  0  0
  150.8340  139.1346   90.8725 H   0  0  0  0  0  0  0  0  0  0  0  0
  149.9438  137.4681   88.6465 H   0  0  0  0  0  0  0  0  0  0  0  0
  151.6345  137.7680   89.1729 H   0  0  0  0  0  0  0  0  0  0  0  0
  145.6717  139.1064   91.0607 H   0  0  0  0  0  0  0  0  0  0  0  0
  143.8585  140.9171   90.4314 H   0  0  0  0  0  0  0  0  0  0  0  0
  141.4695  141.4029   89.9048 H   0  0  0  0  0  0  0  0  0  0  0  0
  139.7884  139.5479   89.8872 H   0  0  0  0  0  0  0  0  0  0  0  0
  1  2  2  0
  2  3  1  0
  3  4  1  0
  4  5  1  0
  5  6  1  0
  6  7  1  0
  7  8  1  0
  8  9  1  0
  9 10  1  0
 10 11  1  0
  2 12  1  0
 12 13  2  0
 13 14  1  0
 14 15  2  0
 15 16  1  0
 16 17  2  0
 17 18  1  0
 18 19  1  0
 18 20  2  0
 20 21  1  0
  9  4  1  0
 21 12  1  0
 11  6  1  0
 20 14  1  0
  3 22  1  0
  4 23  1  1
  5 24  1  0
  5 25  1  0
  7 26  1  0
  7 27  1  0
  8 28  1  0
  8 29  1  0
  9 30  1  0
 10 31  1  0
 10 32  1  0
 11 33  1  0
 11 34  1  0
 13 35  1  0
 15 36  1  0
 16 37  1  0
 17 38  1  0
M  END
>  <meeko>  (7)
{"is_sidechain": false}

>  <source_group>  (7)
CHRNA7 canonical

>  <source_system>  (7)
CHRNA7_encenicline

>  <source_run>  (7)
canonical_obabel_seed3301_ex32

>  <source_seed>  (7)
3301

>  <vina_pose_rank>  (7)
7

>  <vina_affinity_kcal_mol>  (7)
-6.9390000000000001

>  <vina_rmsd_to_crystal_angstrom>  (7)
8.5584000000000007

$$$$
