CHRNA7_encenicline__canonical_obabel_seed3301_ex32__pose01


 22 25  0  0  0  0  0  0  0  0999 V2000
  143.6370  140.7360   90.0330 O   0  0  0  0  0  0  0  0  0  0  0  0
  143.0860  139.7200   90.2910 C   0  0  0  0  0  0  0  0  0  0  0  0
  141.6410  139.6420   90.2060 N   0  0  0  0  0  0  0  0  0  0  0  0
  141.1760  138.8000   90.4160 H   0  0  0  0  0  0  0  0  0  0  0  0
  143.9090  138.4960   90.7090 C   0  0  0  0  0  0  0  0  0  0  0  0
  143.4160  137.2670   90.9840 C   0  0  0  0  0  0  0  0  0  0  0  0
  144.3150  136.2140   91.3620 C   0  0  0  0  0  0  0  0  0  0  0  0
  143.9780  134.9220   91.6680 C   0  0  0  0  0  0  0  0  0  0  0  0
  144.9690  134.0060   92.0210 C   0  0  0  0  0  0  0  0  0  0  0  0
  146.3150  134.4090   92.0630 C   0  0  0  0  0  0  0  0  0  0  0  0
  146.6660  135.7260   91.7510 C   0  0  0  0  0  0  0  0  0  0  0  0
  148.3750  136.2310   91.8030 Cl  0  0  0  0  0  0  0  0  0  0  0  0
  145.6910  136.6300   91.4020 C   0  0  0  0  0  0  0  0  0  0  0  0
  145.6320  138.3840   90.9280 S   0  0  0  0  0  0  0  0  0  0  0  0
  140.8690  140.8390   89.7990 C   0  0  0  0  0  0  0  0  0  0  0  0
  140.5220  140.7560   88.3000 C   0  0  0  0  0  0  0  0  0  0  0  0
  139.1410  140.8020   88.0970 N   0  0  0  0  0  0  0  0  0  0  0  0
  138.6160  141.9600   88.6290 C   0  0  0  0  0  0  0  0  0  0  0  0
  138.8780  142.0530   90.1030 C   0  0  0  0  0  0  0  0  0  0  0  0
  139.6210  140.9090   90.5530 C   0  0  0  0  0  0  0  0  0  0  0  0
  138.8400  139.7090   90.2620 C   0  0  0  0  0  0  0  0  0  0  0  0
  138.5310  139.6840   88.7170 C   0  0  0  0  0  0  0  0  0  0  0  0
  1  2  2  0
  2  3  1  0
  3 15  1  0
 15 16  1  0
 16 17  1  0
 17 18  1  0
 18 19  1  0
 19 20  1  0
 20 21  1  0
 21 22  1  0
  2  5  1  0
  5  6  2  0
  6  7  1  0
  7  8  2  0
  8  9  1  0
  9 10  2  0
 10 11  1  0
 11 12  1  0
 11 13  2  0
 13 14  1  0
 20 15  1  0
 14  5  1  0
 22 17  1  0
 13  7  1  0
  3  4  1  0
M  END
> <meeko>
{"is_sidechain": false}

> <source_group>
CHRNA7 canonical

> <source_system>
CHRNA7_encenicline

> <source_run>
canonical_obabel_seed3301_ex32

> <source_seed>
3301

> <vina_pose_rank>
1

> <vina_affinity_kcal_mol>
-9.8569999999999993

> <vina_rmsd_to_crystal_angstrom>
0.31040000000000001

> <minimizedAffinity>
-9.85974

> <CNNscore>
0.9533271790

> <CNNaffinity>
6.9211335182

> <CNN_VS>
6.5981044769

> <CNNaffinity_variance>
0.0188658778

$$$$
CHRNA7_encenicline__canonical_obabel_seed3301_ex32__pose02


 22 25  0  0  0  0  0  0  0  0999 V2000
  143.8360  140.8700   89.9580 O   0  0  0  0  0  0  0  0  0  0  0  0
  143.3450  139.8220   90.2110 C   0  0  0  0  0  0  0  0  0  0  0  0
  141.9120  139.6470   90.0770 N   0  0  0  0  0  0  0  0  0  0  0  0
  141.4960  138.7790   90.2830 H   0  0  0  0  0  0  0  0  0  0  0  0
  144.2320  138.6610   90.6740 C   0  0  0  0  0  0  0  0  0  0  0  0
  145.5690  138.7180   90.8760 C   0  0  0  0  0  0  0  0  0  0  0  0
  146.2670  137.5440   91.3140 C   0  0  0  0  0  0  0  0  0  0  0  0
  147.6100  137.4370   91.5640 C   0  0  0  0  0  0  0  0  0  0  0  0
  148.1470  136.2200   91.9860 C   0  0  0  0  0  0  0  0  0  0  0  0
  147.3110  135.1040   92.1540 C   0  0  0  0  0  0  0  0  0  0  0  0
  145.9400  135.2060   91.9010 C   0  0  0  0  0  0  0  0  0  0  0  0
  144.8830  133.7860   92.1190 Cl  0  0  0  0  0  0  0  0  0  0  0  0
  145.4080  136.4030   91.4860 C   0  0  0  0  0  0  0  0  0  0  0  0
  143.7590  137.0270   91.0450 S   0  0  0  0  0  0  0  0  0  0  0  0
  141.0780  140.7850   89.6280 C   0  0  0  0  0  0  0  0  0  0  0  0
  140.6550  140.5790   88.1590 C   0  0  0  0  0  0  0  0  0  0  0  0
  139.2640  140.5660   88.0300 N   0  0  0  0  0  0  0  0  0  0  0  0
  138.7270  141.7430   88.5050 C   0  0  0  0  0  0  0  0  0  0  0  0
  139.0640  141.9550   89.9510 C   0  0  0  0  0  0  0  0  0  0  0  0
  139.8690  140.8720   90.4420 C   0  0  0  0  0  0  0  0  0  0  0  0
  139.1180  139.6290   90.2830 C   0  0  0  0  0  0  0  0  0  0  0  0
  138.7280  139.4790   88.7640 C   0  0  0  0  0  0  0  0  0  0  0  0
  1  2  2  0
  2  3  1  0
  3 15  1  0
 15 16  1  0
 16 17  1  0
 17 18  1  0
 18 19  1  0
 19 20  1  0
 20 21  1  0
 21 22  1  0
  2  5  1  0
  5  6  2  0
  6  7  1  0
  7  8  2  0
  8  9  1  0
  9 10  2  0
 10 11  1  0
 11 12  1  0
 11 13  2  0
 13 14  1  0
 20 15  1  0
 14  5  1  0
 22 17  1  0
 13  7  1  0
  3  4  1  0
M  END
> <meeko>
{"is_sidechain": false}

> <source_group>
CHRNA7 canonical

> <source_system>
CHRNA7_encenicline

> <source_run>
canonical_obabel_seed3301_ex32

> <source_seed>
3301

> <vina_pose_rank>
2

> <vina_affinity_kcal_mol>
-9.1110000000000007

> <vina_rmsd_to_crystal_angstrom>
1.8476999999999999

> <minimizedAffinity>
-9.12751

> <CNNscore>
0.9614562392

> <CNNaffinity>
7.1194338799

> <CNN_VS>
6.8450241089

> <CNNaffinity_variance>
0.0034229204

$$$$
CHRNA7_encenicline__canonical_obabel_seed3301_ex32__pose03


 22 25  0  0  0  0  0  0  0  0999 V2000
  140.1570  136.6400   90.2180 O   0  0  0  0  0  0  0  0  0  0  0  0
  140.9950  137.4500   90.4300 C   0  0  0  0  0  0  0  0  0  0  0  0
  140.6800  138.8600   90.3140 N   0  0  0  0  0  0  0  0  0  0  0  0
  141.3700  139.5390   90.4910 H   0  0  0  0  0  0  0  0  0  0  0  0
  142.4040  136.9960   90.8290 C   0  0  0  0  0  0  0  0  0  0  0  0
  142.7750  135.7270   91.1160 C   0  0  0  0  0  0  0  0  0  0  0  0
  144.1370  135.4540   91.4740 C   0  0  0  0  0  0  0  0  0  0  0  0
  144.6700  134.2320   91.7890 C   0  0  0  0  0  0  0  0  0  0  0  0
  146.0210  134.1230   92.1190 C   0  0  0  0  0  0  0  0  0  0  0  0
  146.8360  135.2680   92.1290 C   0  0  0  0  0  0  0  0  0  0  0  0
  146.2990  136.5180   91.8080 C   0  0  0  0  0  0  0  0  0  0  0  0
  147.3380  137.9670   91.8200 Cl  0  0  0  0  0  0  0  0  0  0  0  0
  144.9680  136.6280   91.4820 C   0  0  0  0  0  0  0  0  0  0  0  0
  143.8360  137.9690   91.0080 S   0  0  0  0  0  0  0  0  0  0  0  0
  139.3110  139.2710   89.9270 C   0  0  0  0  0  0  0  0  0  0  0  0
  138.8600  140.4700   90.7850 C   0  0  0  0  0  0  0  0  0  0  0  0
  138.5370  141.5710   89.9870 N   0  0  0  0  0  0  0  0  0  0  0  0
  137.5400  141.2410   89.0950 C   0  0  0  0  0  0  0  0  0  0  0  0
  137.9600  140.1150   88.1970 C   0  0  0  0  0  0  0  0  0  0  0  0
  139.2890  139.6800   88.5250 C   0  0  0  0  0  0  0  0  0  0  0  0
  140.1980  140.8120   88.3620 C   0  0  0  0  0  0  0  0  0  0  0  0
  139.6840  141.9930   89.2710 C   0  0  0  0  0  0  0  0  0  0  0  0
  1  2  2  0
  2  3  1  0
  3 15  1  0
 15 16  1  0
 16 17  1  0
 17 18  1  0
 18 19  1  0
 19 20  1  0
 20 21  1  0
 21 22  1  0
  2  5  1  0
  5  6  2  0
  6  7  1  0
  7  8  2  0
  8  9  1  0
  9 10  2  0
 10 11  1  0
 11 12  1  0
 11 13  2  0
 13 14  1  0
 20 15  1  0
 14  5  1  0
 22 17  1  0
 13  7  1  0
  3  4  1  0
M  END
> <meeko>
{"is_sidechain": false}

> <source_group>
CHRNA7 canonical

> <source_system>
CHRNA7_encenicline

> <source_run>
canonical_obabel_seed3301_ex32

> <source_seed>
3301

> <vina_pose_rank>
3

> <vina_affinity_kcal_mol>
-7.9180000000000001

> <vina_rmsd_to_crystal_angstrom>
2.2738

> <minimizedAffinity>
-7.93876

> <CNNscore>
0.8120934963

> <CNNaffinity>
7.2800388336

> <CNN_VS>
5.9120721817

> <CNNaffinity_variance>
0.1086721122

$$$$
CHRNA7_encenicline__canonical_obabel_seed3301_ex32__pose04


 22 25  0  0  0  0  0  0  0  0999 V2000
  145.8110  138.8420   93.0140 O   0  0  0  0  0  0  0  0  0  0  0  0
  145.5500  138.3980   91.9470 C   0  0  0  0  0  0  0  0  0  0  0  0
  146.5650  137.6870   91.1950 N   0  0  0  0  0  0  0  0  0  0  0  0
  146.3560  137.3130   90.3090 H   0  0  0  0  0  0  0  0  0  0  0  0
  144.1390  138.5770   91.3770 C   0  0  0  0  0  0  0  0  0  0  0  0
  143.2140  137.6000   91.2320 C   0  0  0  0  0  0  0  0  0  0  0  0
  141.9280  137.9210   90.6810 C   0  0  0  0  0  0  0  0  0  0  0  0
  140.8890  137.0530   90.4720 C   0  0  0  0  0  0  0  0  0  0  0  0
  139.6920  137.5150   89.9230 C   0  0  0  0  0  0  0  0  0  0  0  0
  139.5530  138.8720   89.5840 C   0  0  0  0  0  0  0  0  0  0  0  0
  140.6100  139.7630   89.7960 C   0  0  0  0  0  0  0  0  0  0  0  0
  140.4260  141.4840   89.3660 Cl  0  0  0  0  0  0  0  0  0  0  0  0
  141.7890  139.3100   90.3360 C   0  0  0  0  0  0  0  0  0  0  0  0
  143.3930  140.0360   90.7890 S   0  0  0  0  0  0  0  0  0  0  0  0
  147.9210  137.5290   91.7700 C   0  0  0  0  0  0  0  0  0  0  0  0
  148.2170  136.0360   92.0130 C   0  0  0  0  0  0  0  0  0  0  0  0
  149.3540  135.6250   91.3120 N   0  0  0  0  0  0  0  0  0  0  0  0
  150.4450  136.3790   91.6840 C   0  0  0  0  0  0  0  0  0  0  0  0
  150.2240  137.8370   91.4090 C   0  0  0  0  0  0  0  0  0  0  0  0
  148.9210  138.0470   90.8420 C   0  0  0  0  0  0  0  0  0  0  0  0
  148.8320  137.2870   89.5980 C   0  0  0  0  0  0  0  0  0  0  0  0
  149.1350  135.7740   89.9200 C   0  0  0  0  0  0  0  0  0  0  0  0
  1  2  2  0
  2  3  1  0
  3 15  1  0
 15 16  1  0
 16 17  1  0
 17 18  1  0
 18 19  1  0
 19 20  1  0
 20 21  1  0
 21 22  1  0
  2  5  1  0
  5  6  2  0
  6  7  1  0
  7  8  2  0
  8  9  1  0
  9 10  2  0
 10 11  1  0
 11 12  1  0
 11 13  2  0
 13 14  1  0
 20 15  1  0
 14  5  1  0
 22 17  1  0
 13  7  1  0
  3  4  1  0
M  END
> <meeko>
{"is_sidechain": false}

> <source_group>
CHRNA7 canonical

> <source_system>
CHRNA7_encenicline

> <source_run>
canonical_obabel_seed3301_ex32

> <source_seed>
3301

> <vina_pose_rank>
4

> <vina_affinity_kcal_mol>
-7.6429999999999998

> <vina_rmsd_to_crystal_angstrom>
7.9919000000000002

> <minimizedAffinity>
-7.64430

> <CNNscore>
0.2183937579

> <CNNaffinity>
5.0144290924

> <CNN_VS>
1.0951200724

> <CNNaffinity_variance>
0.4336713254

$$$$
CHRNA7_encenicline__canonical_obabel_seed3301_ex32__pose05


 22 25  0  0  0  0  0  0  0  0999 V2000
  146.1860  138.6910   92.9830 O   0  0  0  0  0  0  0  0  0  0  0  0
  145.9020  138.2890   91.9060 C   0  0  0  0  0  0  0  0  0  0  0  0
  146.9370  137.7710   91.0340 N   0  0  0  0  0  0  0  0  0  0  0  0
  146.7090  137.4330   90.1380 H   0  0  0  0  0  0  0  0  0  0  0  0
  144.4390  138.3180   91.4480 C   0  0  0  0  0  0  0  0  0  0  0  0
  143.7450  139.4220   91.0870 C   0  0  0  0  0  0  0  0  0  0  0  0
  142.3760  139.2910   90.6770 C   0  0  0  0  0  0  0  0  0  0  0  0
  141.5410  140.3030   90.2820 C   0  0  0  0  0  0  0  0  0  0  0  0
  140.2260  140.0200   89.9110 C   0  0  0  0  0  0  0  0  0  0  0  0
  139.7580  138.6950   89.9420 C   0  0  0  0  0  0  0  0  0  0  0  0
  140.6050  137.6580   90.3430 C   0  0  0  0  0  0  0  0  0  0  0  0
  140.0050  135.9790   90.3790 Cl  0  0  0  0  0  0  0  0  0  0  0  0
  141.9000  137.9340   90.7100 C   0  0  0  0  0  0  0  0  0  0  0  0
  143.3380  136.9810   91.2830 S   0  0  0  0  0  0  0  0  0  0  0  0
  148.3420  137.7540   91.5010 C   0  0  0  0  0  0  0  0  0  0  0  0
  148.6990  136.3560   92.0440 C   0  0  0  0  0  0  0  0  0  0  0  0
  149.7790  135.8040   91.3510 N   0  0  0  0  0  0  0  0  0  0  0  0
  150.8790  136.6290   91.4420 C   0  0  0  0  0  0  0  0  0  0  0  0
  150.5950  137.9850   90.8680 C   0  0  0  0  0  0  0  0  0  0  0  0
  149.2420  138.0550   90.3910 C   0  0  0  0  0  0  0  0  0  0  0  0
  149.0620  137.0330   89.3640 C   0  0  0  0  0  0  0  0  0  0  0  0
  149.4330  135.6340   89.9880 C   0  0  0  0  0  0  0  0  0  0  0  0
  1  2  2  0
  2  3  1  0
  3 15  1  0
 15 16  1  0
 16 17  1  0
 17 18  1  0
 18 19  1  0
 19 20  1  0
 20 21  1  0
 21 22  1  0
  2  5  1  0
  5  6  2  0
  6  7  1  0
  7  8  2  0
  8  9  1  0
  9 10  2  0
 10 11  1  0
 11 12  1  0
 11 13  2  0
 13 14  1  0
 20 15  1  0
 14  5  1  0
 22 17  1  0
 13  7  1  0
  3  4  1  0
M  END
> <meeko>
{"is_sidechain": false}

> <source_group>
CHRNA7 canonical

> <source_system>
CHRNA7_encenicline

> <source_run>
canonical_obabel_seed3301_ex32

> <source_seed>
3301

> <vina_pose_rank>
5

> <vina_affinity_kcal_mol>
-7.524

> <vina_rmsd_to_crystal_angstrom>
8.1496999999999993

> <minimizedAffinity>
-7.53822

> <CNNscore>
0.1802431643

> <CNNaffinity>
5.0534591675

> <CNN_VS>
0.9108514786

> <CNNaffinity_variance>
0.5164160132

$$$$
CHRNA7_encenicline__canonical_obabel_seed3301_ex32__pose06


 22 25  0  0  0  0  0  0  0  0999 V2000
  144.8630  140.7180   91.1560 O   0  0  0  0  0  0  0  0  0  0  0  0
  144.2540  139.7630   90.8100 C   0  0  0  0  0  0  0  0  0  0  0  0
  144.8590  138.4490   90.9070 N   0  0  0  0  0  0  0  0  0  0  0  0
  144.3590  137.6500   90.6230 H   0  0  0  0  0  0  0  0  0  0  0  0
  142.8300  139.9280   90.2660 C   0  0  0  0  0  0  0  0  0  0  0  0
  141.7420  140.2770   90.9910 C   0  0  0  0  0  0  0  0  0  0  0  0
  140.4690  140.3940   90.3400 C   0  0  0  0  0  0  0  0  0  0  0  0
  139.2790  140.7380   90.9260 C   0  0  0  0  0  0  0  0  0  0  0  0
  138.1170  140.8100   90.1590 C   0  0  0  0  0  0  0  0  0  0  0  0
  138.1650  140.5280   88.7830 C   0  0  0  0  0  0  0  0  0  0  0  0
  139.3760  140.1770   88.1770 C   0  0  0  0  0  0  0  0  0  0  0  0
  139.4310  139.8230   86.4310 Cl  0  0  0  0  0  0  0  0  0  0  0  0
  140.5220  140.1060   88.9320 C   0  0  0  0  0  0  0  0  0  0  0  0
  142.2720  139.7130   88.6320 S   0  0  0  0  0  0  0  0  0  0  0  0
  146.2360  138.3180   91.4360 C   0  0  0  0  0  0  0  0  0  0  0  0
  146.3070  137.1450   92.4330 C   0  0  0  0  0  0  0  0  0  0  0  0
  147.2450  136.1920   92.0280 N   0  0  0  0  0  0  0  0  0  0  0  0
  148.4910  136.7690   91.9040 C   0  0  0  0  0  0  0  0  0  0  0  0
  148.4820  137.8800   90.8960 C   0  0  0  0  0  0  0  0  0  0  0  0
  147.1670  138.0460   90.3440 C   0  0  0  0  0  0  0  0  0  0  0  0
  146.7730  136.7930   89.7060 C   0  0  0  0  0  0  0  0  0  0  0  0
  146.8590  135.6430   90.7810 C   0  0  0  0  0  0  0  0  0  0  0  0
  1  2  2  0
  2  3  1  0
  3 15  1  0
 15 16  1  0
 16 17  1  0
 17 18  1  0
 18 19  1  0
 19 20  1  0
 20 21  1  0
 21 22  1  0
  2  5  1  0
  5  6  2  0
  6  7  1  0
  7  8  2  0
  8  9  1  0
  9 10  2  0
 10 11  1  0
 11 12  1  0
 11 13  2  0
 13 14  1  0
 20 15  1  0
 14  5  1  0
 22 17  1  0
 13  7  1  0
  3  4  1  0
M  END
> <meeko>
{"is_sidechain": false}

> <source_group>
CHRNA7 canonical

> <source_system>
CHRNA7_encenicline

> <source_run>
canonical_obabel_seed3301_ex32

> <source_seed>
3301

> <vina_pose_rank>
6

> <vina_affinity_kcal_mol>
-7.3869999999999996

> <vina_rmsd_to_crystal_angstrom>
7.8219000000000003

> <minimizedAffinity>
-7.39332

> <CNNscore>
0.1560248286

> <CNNaffinity>
5.3133406639

> <CNN_VS>
0.8290130496

> <CNNaffinity_variance>
0.3132841885

$$$$
CHRNA7_encenicline__canonical_obabel_seed3301_ex32__pose07


 22 25  0  0  0  0  0  0  0  0999 V2000
  146.4660  135.4400   92.2360 O   0  0  0  0  0  0  0  0  0  0  0  0
  146.4290  136.4480   91.6170 C   0  0  0  0  0  0  0  0  0  0  0  0
  147.6630  137.0820   91.1950 N   0  0  0  0  0  0  0  0  0  0  0  0
  147.6400  137.9190   90.6780 H   0  0  0  0  0  0  0  0  0  0  0  0
  145.0730  137.0710   91.2660 C   0  0  0  0  0  0  0  0  0  0  0  0
  144.8450  138.3820   91.0180 C   0  0  0  0  0  0  0  0  0  0  0  0
  143.5160  138.8190   90.6990 C   0  0  0  0  0  0  0  0  0  0  0  0
  143.1210  140.1010   90.4220 C   0  0  0  0  0  0  0  0  0  0  0  0
  141.7850  140.3730   90.1280 C   0  0  0  0  0  0  0  0  0  0  0  0
  140.8420  139.3310   90.1170 C   0  0  0  0  0  0  0  0  0  0  0  0
  141.2380  138.0200   90.3970 C   0  0  0  0  0  0  0  0  0  0  0  0
  140.0380  136.7010   90.3780 Cl  0  0  0  0  0  0  0  0  0  0  0  0
  142.5540  137.7490   90.6870 C   0  0  0  0  0  0  0  0  0  0  0  0
  143.5340  136.2750   91.1020 S   0  0  0  0  0  0  0  0  0  0  0  0
  148.9590  136.4580   91.5480 C   0  0  0  0  0  0  0  0  0  0  0  0
  149.4830  135.6280   90.3600 C   0  0  0  0  0  0  0  0  0  0  0  0
  150.7400  136.0760   89.9450 N   0  0  0  0  0  0  0  0  0  0  0  0
  151.6400  136.0120   90.9870 C   0  0  0  0  0  0  0  0  0  0  0  0
  151.1980  136.8550   92.1450 C   0  0  0  0  0  0  0  0  0  0  0  0
  149.9440  137.4910   91.8530 C   0  0  0  0  0  0  0  0  0  0  0  0
  150.1160  138.3270   90.6670 C   0  0  0  0  0  0  0  0  0  0  0  0
  150.6430  137.4160   89.4940 C   0  0  0  0  0  0  0  0  0  0  0  0
  1  2  2  0
  2  3  1  0
  3 15  1  0
 15 16  1  0
 16 17  1  0
 17 18  1  0
 18 19  1  0
 19 20  1  0
 20 21  1  0
 21 22  1  0
  2  5  1  0
  5  6  2  0
  6  7  1  0
  7  8  2  0
  8  9  1  0
  9 10  2  0
 10 11  1  0
 11 12  1  0
 11 13  2  0
 13 14  1  0
 20 15  1  0
 14  5  1  0
 22 17  1  0
 13  7  1  0
  3  4  1  0
M  END
> <meeko>
{"is_sidechain": false}

> <source_group>
CHRNA7 canonical

> <source_system>
CHRNA7_encenicline

> <source_run>
canonical_obabel_seed3301_ex32

> <source_seed>
3301

> <vina_pose_rank>
7

> <vina_affinity_kcal_mol>
-6.9390000000000001

> <vina_rmsd_to_crystal_angstrom>
8.5584000000000007

> <minimizedAffinity>
-6.94515

> <CNNscore>
0.1807813346

> <CNNaffinity>
4.8274416924

> <CNN_VS>
0.8727113605

> <CNNaffinity_variance>
0.7149747014

$$$$
