CHRNA7_encenicline__canonical_obabel_redock_seed20260825_ex32__pose01
     RDKit          3D

 38 41  0  0  0  0  0  0  0  0999 V2000
  143.6160  140.7320   90.0310 O   0  0  0  0  0  0  0  0  0  0  0  0
  143.0690  139.7150   90.2950 C   0  0  0  0  0  0  0  0  0  0  0  0
  141.6240  139.6310   90.2110 N   0  0  0  0  0  0  0  0  0  0  0  0
  140.8480  140.8230   89.7990 C   0  0  1  0  0  0  0  0  0  0  0  0
  140.4990  140.7310   88.3000 C   0  0  0  0  0  0  0  0  0  0  0  0
  139.1170  140.7700   88.1000 N   0  0  0  0  0  0  0  0  0  0  0  0
  138.5890  141.9290   88.6260 C   0  0  0  0  0  0  0  0  0  0  0  0
  138.8530  142.0320   90.0990 C   0  0  0  0  0  0  0  0  0  0  0  0
  139.6010  140.8930   90.5550 C   0  0  0  0  0  0  0  0  0  0  0  0
  138.8240  139.6890   90.2720 C   0  0  0  0  0  0  0  0  0  0  0  0
  138.5120  139.6540   88.7270 C   0  0  0  0  0  0  0  0  0  0  0  0
  143.8980  138.4970   90.7180 C   0  0  0  0  0  0  0  0  0  0  0  0
  143.4090  137.2680   91.0020 C   0  0  0  0  0  0  0  0  0  0  0  0
  144.3130  136.2200   91.3840 C   0  0  0  0  0  0  0  0  0  0  0  0
  143.9800  134.9290   91.6990 C   0  0  0  0  0  0  0  0  0  0  0  0
  144.9760  134.0190   92.0560 C   0  0  0  0  0  0  0  0  0  0  0  0
  146.3200  134.4260   92.0920 C   0  0  0  0  0  0  0  0  0  0  0  0
  146.6660  135.7430   91.7710 C   0  0  0  0  0  0  0  0  0  0  0  0
  148.3740  136.2530   91.8160 Cl  0  0  0  0  0  0  0  0  0  0  0  0
  145.6870  136.6410   91.4190 C   0  0  0  0  0  0  0  0  0  0  0  0
  145.6220  138.3920   90.9340 S   0  0  0  0  0  0  0  0  0  0  0  0
  141.1630  138.7890   90.4260 H   0  0  0  0  0  0  0  0  0  0  0  0
  141.4578  141.7179   89.9920 H   0  0  0  0  0  0  0  0  0  0  0  0
  140.9621  141.5771   87.7711 H   0  0  0  0  0  0  0  0  0  0  0  0
  140.8804  139.7752   87.9115 H   0  0  0  0  0  0  0  0  0  0  0  0
  139.0454  142.7922   88.1195 H   0  0  0  0  0  0  0  0  0  0  0  0
  137.5002  141.9153   88.4698 H   0  0  0  0  0  0  0  0  0  0  0  0
  139.4281  142.9477   90.3009 H   0  0  0  0  0  0  0  0  0  0  0  0
  137.8915  142.0640   90.6323 H   0  0  0  0  0  0  0  0  0  0  0  0
  139.8086  140.9763   91.6320 H   0  0  0  0  0  0  0  0  0  0  0  0
  139.4029  138.7975   90.5550 H   0  0  0  0  0  0  0  0  0  0  0  0
  137.8870  139.6981   90.8481 H   0  0  0  0  0  0  0  0  0  0  0  0
  138.9133  138.7266   88.2924 H   0  0  0  0  0  0  0  0  0  0  0  0
  137.4237  139.6899   88.5709 H   0  0  0  0  0  0  0  0  0  0  0  0
  142.3281  137.0733   90.9408 H   0  0  0  0  0  0  0  0  0  0  0  0
  142.9277  134.6097   91.6705 H   0  0  0  0  0  0  0  0  0  0  0  0
  144.7085  132.9825   92.3093 H   0  0  0  0  0  0  0  0  0  0  0  0
  147.1031  133.7067   92.3736 H   0  0  0  0  0  0  0  0  0  0  0  0
  1  2  2  0
  2  3  1  0
  3  4  1  0
  4  5  1  0
  5  6  1  0
  6  7  1  0
  7  8  1  0
  8  9  1  0
  9 10  1  0
 10 11  1  0
  2 12  1  0
 12 13  2  0
 13 14  1  0
 14 15  2  0
 15 16  1  0
 16 17  2  0
 17 18  1  0
 18 19  1  0
 18 20  2  0
 20 21  1  0
  9  4  1  0
 21 12  1  0
 11  6  1  0
 20 14  1  0
  3 22  1  0
  4 23  1  6
  5 24  1  0
  5 25  1  0
  7 26  1  0
  7 27  1  0
  8 28  1  0
  8 29  1  0
  9 30  1  0
 10 31  1  0
 10 32  1  0
 11 33  1  0
 11 34  1  0
 13 35  1  0
 15 36  1  0
 16 37  1  0
 17 38  1  0
M  END
>  <meeko>  (1)
{"is_sidechain": false}

>  <source_group>  (1)
CHRNA7 canonical

>  <source_system>  (1)
CHRNA7_encenicline

>  <source_run>  (1)
canonical_obabel_redock_seed20260825_ex32

>  <source_seed>  (1)
20260825

>  <vina_pose_rank>  (1)
1

>  <vina_affinity_kcal_mol>  (1)
-9.8520000000000003

>  <vina_rmsd_to_crystal_angstrom>  (1)
0.30109999999999998

$$$$
CHRNA7_encenicline__canonical_obabel_redock_seed20260825_ex32__pose02
     RDKit          3D

 38 41  0  0  0  0  0  0  0  0999 V2000
  143.8370  140.8540   89.9430 O   0  0  0  0  0  0  0  0  0  0  0  0
  143.3450  139.8120   90.2160 C   0  0  0  0  0  0  0  0  0  0  0  0
  141.9090  139.6430   90.1070 N   0  0  0  0  0  0  0  0  0  0  0  0
  141.0740  140.7800   89.6580 C   0  0  1  0  0  0  0  0  0  0  0  0
  140.6600  140.5790   88.1870 C   0  0  0  0  0  0  0  0  0  0  0  0
  139.2690  140.5610   88.0500 N   0  0  0  0  0  0  0  0  0  0  0  0
  138.7260  141.7340   88.5270 C   0  0  0  0  0  0  0  0  0  0  0  0
  139.0540  141.9410   89.9760 C   0  0  0  0  0  0  0  0  0  0  0  0
  139.8610  140.8590   90.4670 C   0  0  0  0  0  0  0  0  0  0  0  0
  139.1140  139.6150   90.2990 C   0  0  0  0  0  0  0  0  0  0  0  0
  138.7330  139.4690   88.7760 C   0  0  0  0  0  0  0  0  0  0  0  0
  144.2340  138.6520   90.6780 C   0  0  0  0  0  0  0  0  0  0  0  0
  145.5710  138.7100   90.8770 C   0  0  0  0  0  0  0  0  0  0  0  0
  146.2710  137.5360   91.3150 C   0  0  0  0  0  0  0  0  0  0  0  0
  147.6150  137.4310   91.5610 C   0  0  0  0  0  0  0  0  0  0  0  0
  148.1540  136.2150   91.9830 C   0  0  0  0  0  0  0  0  0  0  0  0
  147.3180  135.0980   92.1550 C   0  0  0  0  0  0  0  0  0  0  0  0
  145.9460  135.2000   91.9060 C   0  0  0  0  0  0  0  0  0  0  0  0
  144.8910  133.7800   92.1280 Cl  0  0  0  0  0  0  0  0  0  0  0  0
  145.4130  136.3960   91.4900 C   0  0  0  0  0  0  0  0  0  0  0  0
  143.7620  137.0190   91.0520 S   0  0  0  0  0  0  0  0  0  0  0  0
  141.4930  138.7790   90.3300 H   0  0  0  0  0  0  0  0  0  0  0  0
  141.6602  141.7047   89.7643 H   0  0  0  0  0  0  0  0  0  0  0  0
  141.0691  141.4027   87.5836 H   0  0  0  0  0  0  0  0  0  0  0  0
  141.0558  139.6119   87.8434 H   0  0  0  0  0  0  0  0  0  0  0  0
  139.1280  142.5767   87.9454 H   0  0  0  0  0  0  0  0  0  0  0  0
  137.6323  141.6751   88.4252 H   0  0  0  0  0  0  0  0  0  0  0  0
  139.6057  142.8857   90.0912 H   0  0  0  0  0  0  0  0  0  0  0  0
  138.1175  141.9770   90.5519 H   0  0  0  0  0  0  0  0  0  0  0  0
  140.1149  141.0186   91.5253 H   0  0  0  0  0  0  0  0  0  0  0  0
  139.7358  138.7627   90.6104 H   0  0  0  0  0  0  0  0  0  0  0  0
  138.2045  139.6322   90.9175 H   0  0  0  0  0  0  0  0  0  0  0  0
  139.1465  138.5286   88.3828 H   0  0  0  0  0  0  0  0  0  0  0  0
  137.6381  139.4596   88.6705 H   0  0  0  0  0  0  0  0  0  0  0  0
  146.1171  139.6492   90.7045 H   0  0  0  0  0  0  0  0  0  0  0  0
  148.2689  138.3052   91.4258 H   0  0  0  0  0  0  0  0  0  0  0  0
  149.2327  136.1305   92.1810 H   0  0  0  0  0  0  0  0  0  0  0  0
  147.7449  134.1400   92.4868 H   0  0  0  0  0  0  0  0  0  0  0  0
  1  2  2  0
  2  3  1  0
  3  4  1  0
  4  5  1  0
  5  6  1  0
  6  7  1  0
  7  8  1  0
  8  9  1  0
  9 10  1  0
 10 11  1  0
  2 12  1  0
 12 13  2  0
 13 14  1  0
 14 15  2  0
 15 16  1  0
 16 17  2  0
 17 18  1  0
 18 19  1  0
 18 20  2  0
 20 21  1  0
  9  4  1  0
 21 12  1  0
 11  6  1  0
 20 14  1  0
  3 22  1  0
  4 23  1  6
  5 24  1  0
  5 25  1  0
  7 26  1  0
  7 27  1  0
  8 28  1  0
  8 29  1  0
  9 30  1  0
 10 31  1  0
 10 32  1  0
 11 33  1  0
 11 34  1  0
 13 35  1  0
 15 36  1  0
 16 37  1  0
 17 38  1  0
M  END
>  <meeko>  (2)
{"is_sidechain": false}

>  <source_group>  (2)
CHRNA7 canonical

>  <source_system>  (2)
CHRNA7_encenicline

>  <source_run>  (2)
canonical_obabel_redock_seed20260825_ex32

>  <source_seed>  (2)
20260825

>  <vina_pose_rank>  (2)
2

>  <vina_affinity_kcal_mol>  (2)
-9.1110000000000007

>  <vina_rmsd_to_crystal_angstrom>  (2)
1.8478000000000001

$$$$
CHRNA7_encenicline__canonical_obabel_redock_seed20260825_ex32__pose03
     RDKit          3D

 38 41  0  0  0  0  0  0  0  0999 V2000
  140.1160  136.5170   90.3300 O   0  0  0  0  0  0  0  0  0  0  0  0
  140.9850  137.3210   90.3590 C   0  0  0  0  0  0  0  0  0  0  0  0
  140.7100  138.6920   89.9750 N   0  0  0  0  0  0  0  0  0  0  0  0
  139.3440  139.0690   89.5470 C   0  0  1  0  0  0  0  0  0  0  0  0
  138.6310  139.8360   90.6780 C   0  0  0  0  0  0  0  0  0  0  0  0
  138.2340  141.1070   90.2560 N   0  0  0  0  0  0  0  0  0  0  0  0
  137.3970  141.0100   89.1660 C   0  0  0  0  0  0  0  0  0  0  0  0
  138.0720  140.3220   88.0170 C   0  0  0  0  0  0  0  0  0  0  0  0
  139.4090  139.9390   88.3760 C   0  0  0  0  0  0  0  0  0  0  0  0
  140.1510  141.1440   88.7400 C   0  0  0  0  0  0  0  0  0  0  0  0
  139.3740  141.8700   89.9040 C   0  0  0  0  0  0  0  0  0  0  0  0
  142.3900  136.9030   90.8070 C   0  0  0  0  0  0  0  0  0  0  0  0
  142.7910  135.6390   91.0750 C   0  0  0  0  0  0  0  0  0  0  0  0
  144.1460  135.4010   91.4840 C   0  0  0  0  0  0  0  0  0  0  0  0
  144.7070  134.1890   91.7890 C   0  0  0  0  0  0  0  0  0  0  0  0
  146.0460  134.1160   92.1750 C   0  0  0  0  0  0  0  0  0  0  0  0
  146.8200  135.2870   92.2510 C   0  0  0  0  0  0  0  0  0  0  0  0
  146.2540  136.5270   91.9410 C   0  0  0  0  0  0  0  0  0  0  0  0
  147.2410  138.0080   92.0370 Cl  0  0  0  0  0  0  0  0  0  0  0  0
  144.9350  136.6010   91.5600 C   0  0  0  0  0  0  0  0  0  0  0  0
  143.7790  137.9170   91.0740 S   0  0  0  0  0  0  0  0  0  0  0  0
  141.4260  139.3670   89.9980 H   0  0  0  0  0  0  0  0  0  0  0  0
  138.7907  138.1496   89.3048 H   0  0  0  0  0  0  0  0  0  0  0  0
  137.7424  139.2684   90.9913 H   0  0  0  0  0  0  0  0  0  0  0  0
  139.3337  139.9517   91.5164 H   0  0  0  0  0  0  0  0  0  0  0  0
  136.5029  140.4363   89.4513 H   0  0  0  0  0  0  0  0  0  0  0  0
  137.1234  142.0269   88.8481 H   0  0  0  0  0  0  0  0  0  0  0  0
  137.4985  139.4235   87.7454 H   0  0  0  0  0  0  0  0  0  0  0  0
  138.1171  141.0149   87.1639 H   0  0  0  0  0  0  0  0  0  0  0  0
  139.8980  139.4207   87.5381 H   0  0  0  0  0  0  0  0  0  0  0  0
  141.1607  140.8707   89.0804 H   0  0  0  0  0  0  0  0  0  0  0  0
  140.2412  141.8113   87.8702 H   0  0  0  0  0  0  0  0  0  0  0  0
  140.0332  141.9698   90.7789 H   0  0  0  0  0  0  0  0  0  0  0  0
  139.0583  142.8687   89.5680 H   0  0  0  0  0  0  0  0  0  0  0  0
  142.0847  134.8010   90.9803 H   0  0  0  0  0  0  0  0  0  0  0  0
  144.1015  133.2726   91.7296 H   0  0  0  0  0  0  0  0  0  0  0  0
  146.4957  133.1424   92.4197 H   0  0  0  0  0  0  0  0  0  0  0  0
  147.8753  135.2273   92.5556 H   0  0  0  0  0  0  0  0  0  0  0  0
  1  2  2  0
  2  3  1  0
  3  4  1  0
  4  5  1  0
  5  6  1  0
  6  7  1  0
  7  8  1  0
  8  9  1  0
  9 10  1  0
 10 11  1  0
  2 12  1  0
 12 13  2  0
 13 14  1  0
 14 15  2  0
 15 16  1  0
 16 17  2  0
 17 18  1  0
 18 19  1  0
 18 20  2  0
 20 21  1  0
  9  4  1  0
 21 12  1  0
 11  6  1  0
 20 14  1  0
  3 22  1  0
  4 23  1  6
  5 24  1  0
  5 25  1  0
  7 26  1  0
  7 27  1  0
  8 28  1  0
  8 29  1  0
  9 30  1  0
 10 31  1  0
 10 32  1  0
 11 33  1  0
 11 34  1  0
 13 35  1  0
 15 36  1  0
 16 37  1  0
 17 38  1  0
M  END
>  <meeko>  (3)
{"is_sidechain": false}

>  <source_group>  (3)
CHRNA7 canonical

>  <source_system>  (3)
CHRNA7_encenicline

>  <source_run>  (3)
canonical_obabel_redock_seed20260825_ex32

>  <source_seed>  (3)
20260825

>  <vina_pose_rank>  (3)
3

>  <vina_affinity_kcal_mol>  (3)
-7.9450000000000003

>  <vina_rmsd_to_crystal_angstrom>  (3)
2.3275000000000001

$$$$
CHRNA7_encenicline__canonical_obabel_redock_seed20260825_ex32__pose04
     RDKit          3D

 38 41  0  0  0  0  0  0  0  0999 V2000
  145.7300  138.8850   93.0390 O   0  0  0  0  0  0  0  0  0  0  0  0
  145.4760  138.4490   91.9680 C   0  0  0  0  0  0  0  0  0  0  0  0
  146.4930  137.7370   91.2200 N   0  0  0  0  0  0  0  0  0  0  0  0
  147.8430  137.5670   91.8060 C   0  0  1  0  0  0  0  0  0  0  0  0
  148.1110  136.0750   92.0850 C   0  0  0  0  0  0  0  0  0  0  0  0
  149.2430  135.6270   91.4000 N   0  0  0  0  0  0  0  0  0  0  0  0
  150.3460  136.3690   91.7600 C   0  0  0  0  0  0  0  0  0  0  0  0
  150.1530  137.8240   91.4500 C   0  0  0  0  0  0  0  0  0  0  0  0
  148.8570  138.0450   90.8710 C   0  0  0  0  0  0  0  0  0  0  0  0
  148.7600  137.2580   89.6440 C   0  0  0  0  0  0  0  0  0  0  0  0
  149.0340  135.7480   90.0040 C   0  0  0  0  0  0  0  0  0  0  0  0
  144.0710  138.6390   91.3860 C   0  0  0  0  0  0  0  0  0  0  0  0
  143.1460  137.6660   91.2160 C   0  0  0  0  0  0  0  0  0  0  0  0
  141.8660  137.9980   90.6580 C   0  0  0  0  0  0  0  0  0  0  0  0
  140.8280  137.1350   90.4250 C   0  0  0  0  0  0  0  0  0  0  0  0
  139.6370  137.6080   89.8720 C   0  0  0  0  0  0  0  0  0  0  0  0
  139.5030  138.9710   89.5540 C   0  0  0  0  0  0  0  0  0  0  0  0
  140.5590  139.8570   89.7900 C   0  0  0  0  0  0  0  0  0  0  0  0
  140.3820  141.5840   89.3870 Cl  0  0  0  0  0  0  0  0  0  0  0  0
  141.7330  139.3930   90.3350 C   0  0  0  0  0  0  0  0  0  0  0  0
  143.3330  140.1090   90.8150 S   0  0  0  0  0  0  0  0  0  0  0  0
  146.2890  137.3690   90.3300 H   0  0  0  0  0  0  0  0  0  0  0  0
  147.8898  138.1427   92.7422 H   0  0  0  0  0  0  0  0  0  0  0  0
  148.2664  135.9344   93.1649 H   0  0  0  0  0  0  0  0  0  0  0  0
  147.2428  135.4951   91.7386 H   0  0  0  0  0  0  0  0  0  0  0  0
  150.5180  136.2532   92.8403 H   0  0  0  0  0  0  0  0  0  0  0  0
  151.2103  136.0047   91.1854 H   0  0  0  0  0  0  0  0  0  0  0  0
  150.2392  138.4070   92.3788 H   0  0  0  0  0  0  0  0  0  0  0  0
  150.9235  138.1411   90.7318 H   0  0  0  0  0  0  0  0  0  0  0  0
  148.7091  139.1139   90.6576 H   0  0  0  0  0  0  0  0  0  0  0  0
  147.7528  137.3614   89.2140 H   0  0  0  0  0  0  0  0  0  0  0  0
  149.4953  137.6121   88.9065 H   0  0  0  0  0  0  0  0  0  0  0  0
  148.1681  135.1374   89.7084 H   0  0  0  0  0  0  0  0  0  0  0  0
  149.9284  135.3990   89.4672 H   0  0  0  0  0  0  0  0  0  0  0  0
  143.3733  136.6288   91.5032 H   0  0  0  0  0  0  0  0  0  0  0  0
  140.9332  136.0687   90.6739 H   0  0  0  0  0  0  0  0  0  0  0  0
  138.8036  136.9148   89.6851 H   0  0  0  0  0  0  0  0  0  0  0  0
  138.5638  139.3420   89.1178 H   0  0  0  0  0  0  0  0  0  0  0  0
  1  2  2  0
  2  3  1  0
  3  4  1  0
  4  5  1  0
  5  6  1  0
  6  7  1  0
  7  8  1  0
  8  9  1  0
  9 10  1  0
 10 11  1  0
  2 12  1  0
 12 13  2  0
 13 14  1  0
 14 15  2  0
 15 16  1  0
 16 17  2  0
 17 18  1  0
 18 19  1  0
 18 20  2  0
 20 21  1  0
  9  4  1  0
 21 12  1  0
 11  6  1  0
 20 14  1  0
  3 22  1  0
  4 23  1  1
  5 24  1  0
  5 25  1  0
  7 26  1  0
  7 27  1  0
  8 28  1  0
  8 29  1  0
  9 30  1  0
 10 31  1  0
 10 32  1  0
 11 33  1  0
 11 34  1  0
 13 35  1  0
 15 36  1  0
 16 37  1  0
 17 38  1  0
M  END
>  <meeko>  (4)
{"is_sidechain": false}

>  <source_group>  (4)
CHRNA7 canonical

>  <source_system>  (4)
CHRNA7_encenicline

>  <source_run>  (4)
canonical_obabel_redock_seed20260825_ex32

>  <source_seed>  (4)
20260825

>  <vina_pose_rank>  (4)
4

>  <vina_affinity_kcal_mol>  (4)
-7.633

>  <vina_rmsd_to_crystal_angstrom>  (4)
7.9809999999999999

$$$$
CHRNA7_encenicline__canonical_obabel_redock_seed20260825_ex32__pose05
     RDKit          3D

 38 41  0  0  0  0  0  0  0  0999 V2000
  146.1480  138.6610   93.0240 O   0  0  0  0  0  0  0  0  0  0  0  0
  145.8700  138.2300   91.9560 C   0  0  0  0  0  0  0  0  0  0  0  0
  146.9110  137.6860   91.1060 N   0  0  0  0  0  0  0  0  0  0  0  0
  148.3130  137.6810   91.5830 C   0  0  1  0  0  0  0  0  0  0  0  0
  148.6930  136.2720   92.0820 C   0  0  0  0  0  0  0  0  0  0  0  0
  149.7880  135.7650   91.3780 N   0  0  0  0  0  0  0  0  0  0  0  0
  150.8710  136.6070   91.5060 C   0  0  0  0  0  0  0  0  0  0  0  0
  150.5660  137.9760   90.9760 C   0  0  0  0  0  0  0  0  0  0  0  0
  149.2150  138.0360   90.4910 C   0  0  0  0  0  0  0  0  0  0  0  0
  149.0620  137.0460   89.4280 C   0  0  0  0  0  0  0  0  0  0  0  0
  149.4560  135.6340   90.0080 C   0  0  0  0  0  0  0  0  0  0  0  0
  144.4110  138.2480   91.4880 C   0  0  0  0  0  0  0  0  0  0  0  0
  143.7110  139.3470   91.1220 C   0  0  0  0  0  0  0  0  0  0  0  0
  142.3460  139.2070   90.7020 C   0  0  0  0  0  0  0  0  0  0  0  0
  141.5070  140.2130   90.3010 C   0  0  0  0  0  0  0  0  0  0  0  0
  140.1970  139.9200   89.9200 C   0  0  0  0  0  0  0  0  0  0  0  0
  139.7380  138.5920   89.9470 C   0  0  0  0  0  0  0  0  0  0  0  0
  140.5900  137.5600   90.3540 C   0  0  0  0  0  0  0  0  0  0  0  0
  140.0030  135.8770   90.3840 Cl  0  0  0  0  0  0  0  0  0  0  0  0
  141.8810  137.8460   90.7300 C   0  0  0  0  0  0  0  0  0  0  0  0
  143.3210  136.9030   91.3130 S   0  0  0  0  0  0  0  0  0  0  0  0
  146.6890  137.3240   90.2180 H   0  0  0  0  0  0  0  0  0  0  0  0
  148.4034  138.4115   92.4004 H   0  0  0  0  0  0  0  0  0  0  0  0
  148.9475  136.3264   93.1508 H   0  0  0  0  0  0  0  0  0  0  0  0
  147.8352  135.6024   91.9212 H   0  0  0  0  0  0  0  0  0  0  0  0
  151.1385  136.6867   92.5700 H   0  0  0  0  0  0  0  0  0  0  0  0
  151.7052  136.1886   90.9238 H   0  0  0  0  0  0  0  0  0  0  0  0
  150.6948  138.7136   91.7818 H   0  0  0  0  0  0  0  0  0  0  0  0
  151.2531  138.1985   90.1463 H   0  0  0  0  0  0  0  0  0  0  0  0
  148.9867  139.0447   90.1162 H   0  0  0  0  0  0  0  0  0  0  0  0
  148.0176  137.0285   89.0832 H   0  0  0  0  0  0  0  0  0  0  0  0
  149.7097  137.3006   88.5762 H   0  0  0  0  0  0  0  0  0  0  0  0
  148.6069  134.9430   89.9005 H   0  0  0  0  0  0  0  0  0  0  0  0
  150.3214  135.2383   89.4562 H   0  0  0  0  0  0  0  0  0  0  0  0
  144.1846  140.3395   91.1463 H   0  0  0  0  0  0  0  0  0  0  0  0
  141.8663  141.2525   90.2794 H   0  0  0  0  0  0  0  0  0  0  0  0
  139.5237  140.7283   89.5986 H   0  0  0  0  0  0  0  0  0  0  0  0
  138.7048  138.3632   89.6469 H   0  0  0  0  0  0  0  0  0  0  0  0
  1  2  2  0
  2  3  1  0
  3  4  1  0
  4  5  1  0
  5  6  1  0
  6  7  1  0
  7  8  1  0
  8  9  1  0
  9 10  1  0
 10 11  1  0
  2 12  1  0
 12 13  2  0
 13 14  1  0
 14 15  2  0
 15 16  1  0
 16 17  2  0
 17 18  1  0
 18 19  1  0
 18 20  2  0
 20 21  1  0
  9  4  1  0
 21 12  1  0
 11  6  1  0
 20 14  1  0
  3 22  1  0
  4 23  1  1
  5 24  1  0
  5 25  1  0
  7 26  1  0
  7 27  1  0
  8 28  1  0
  8 29  1  0
  9 30  1  0
 10 31  1  0
 10 32  1  0
 11 33  1  0
 11 34  1  0
 13 35  1  0
 15 36  1  0
 16 37  1  0
 17 38  1  0
M  END
>  <meeko>  (5)
{"is_sidechain": false}

>  <source_group>  (5)
CHRNA7 canonical

>  <source_system>  (5)
CHRNA7_encenicline

>  <source_run>  (5)
canonical_obabel_redock_seed20260825_ex32

>  <source_seed>  (5)
20260825

>  <vina_pose_rank>  (5)
5

>  <vina_affinity_kcal_mol>  (5)
-7.5350000000000001

>  <vina_rmsd_to_crystal_angstrom>  (5)
8.1488999999999994

$$$$
CHRNA7_encenicline__canonical_obabel_redock_seed20260825_ex32__pose06
     RDKit          3D

 38 41  0  0  0  0  0  0  0  0999 V2000
  144.8510  140.7230   91.1830 O   0  0  0  0  0  0  0  0  0  0  0  0
  144.2550  139.7700   90.8090 C   0  0  0  0  0  0  0  0  0  0  0  0
  144.8770  138.4610   90.8720 N   0  0  0  0  0  0  0  0  0  0  0  0
  146.2550  138.3340   91.4000 C   0  0  1  0  0  0  0  0  0  0  0  0
  146.3260  137.1670   92.4050 C   0  0  0  0  0  0  0  0  0  0  0  0
  147.2650  136.2120   92.0050 N   0  0  0  0  0  0  0  0  0  0  0  0
  148.5100  136.7880   91.8770 C   0  0  0  0  0  0  0  0  0  0  0  0
  148.5010  137.8920   90.8620 C   0  0  0  0  0  0  0  0  0  0  0  0
  147.1850  138.0550   90.3100 C   0  0  0  0  0  0  0  0  0  0  0  0
  146.7910  136.7980   89.6800 C   0  0  0  0  0  0  0  0  0  0  0  0
  146.8770  135.6550   90.7610 C   0  0  0  0  0  0  0  0  0  0  0  0
  142.8310  139.9310   90.2670 C   0  0  0  0  0  0  0  0  0  0  0  0
  141.7420  140.2760   90.9920 C   0  0  0  0  0  0  0  0  0  0  0  0
  140.4680  140.3900   90.3420 C   0  0  0  0  0  0  0  0  0  0  0  0
  139.2780  140.7300   90.9300 C   0  0  0  0  0  0  0  0  0  0  0  0
  138.1150  140.7990   90.1630 C   0  0  0  0  0  0  0  0  0  0  0  0
  138.1630  140.5190   88.7860 C   0  0  0  0  0  0  0  0  0  0  0  0
  139.3750  140.1720   88.1800 C   0  0  0  0  0  0  0  0  0  0  0  0
  139.4300  139.8200   86.4330 Cl  0  0  0  0  0  0  0  0  0  0  0  0
  140.5220  140.1040   88.9340 C   0  0  0  0  0  0  0  0  0  0  0  0
  142.2720  139.7160   88.6330 S   0  0  0  0  0  0  0  0  0  0  0  0
  144.3880  137.6640   90.5650 H   0  0  0  0  0  0  0  0  0  0  0  0
  146.5258  139.2786   91.8944 H   0  0  0  0  0  0  0  0  0  0  0  0
  146.6120  137.5601   93.3917 H   0  0  0  0  0  0  0  0  0  0  0  0
  145.3378  136.6861   92.4507 H   0  0  0  0  0  0  0  0  0  0  0  0
  148.8157  137.1993   92.8503 H   0  0  0  0  0  0  0  0  0  0  0  0
  149.2161  136.0145   91.5406 H   0  0  0  0  0  0  0  0  0  0  0  0
  148.8101  138.8307   91.3450 H   0  0  0  0  0  0  0  0  0  0  0  0
  149.1986  137.6362   90.0509 H   0  0  0  0  0  0  0  0  0  0  0  0
  147.1753  138.8753   89.5772 H   0  0  0  0  0  0  0  0  0  0  0  0
  145.7604  136.8775   89.3038 H   0  0  0  0  0  0  0  0  0  0  0  0
  147.4582  136.5719   88.8352 H   0  0  0  0  0  0  0  0  0  0  0  0
  145.8934  135.1736   90.8652 H   0  0  0  0  0  0  0  0  0  0  0  0
  147.6190  134.9065   90.4461 H   0  0  0  0  0  0  0  0  0  0  0  0
  141.8327  140.4676   92.0714 H   0  0  0  0  0  0  0  0  0  0  0  0
  139.2398  140.9486   92.0074 H   0  0  0  0  0  0  0  0  0  0  0  0
  137.1601  141.0725   90.6356 H   0  0  0  0  0  0  0  0  0  0  0  0
  137.2444  140.5730   88.1833 H   0  0  0  0  0  0  0  0  0  0  0  0
  1  2  2  0
  2  3  1  0
  3  4  1  0
  4  5  1  0
  5  6  1  0
  6  7  1  0
  7  8  1  0
  8  9  1  0
  9 10  1  0
 10 11  1  0
  2 12  1  0
 12 13  2  0
 13 14  1  0
 14 15  2  0
 15 16  1  0
 16 17  2  0
 17 18  1  0
 18 19  1  0
 18 20  2  0
 20 21  1  0
  9  4  1  0
 21 12  1  0
 11  6  1  0
 20 14  1  0
  3 22  1  0
  4 23  1  1
  5 24  1  0
  5 25  1  0
  7 26  1  0
  7 27  1  0
  8 28  1  0
  8 29  1  0
  9 30  1  0
 10 31  1  0
 10 32  1  0
 11 33  1  0
 11 34  1  0
 13 35  1  0
 15 36  1  0
 16 37  1  0
 17 38  1  0
M  END
>  <meeko>  (6)
{"is_sidechain": false}

>  <source_group>  (6)
CHRNA7 canonical

>  <source_system>  (6)
CHRNA7_encenicline

>  <source_run>  (6)
canonical_obabel_redock_seed20260825_ex32

>  <source_seed>  (6)
20260825

>  <vina_pose_rank>  (6)
6

>  <vina_affinity_kcal_mol>  (6)
-7.391

>  <vina_rmsd_to_crystal_angstrom>  (6)
7.8227000000000002

$$$$
CHRNA7_encenicline__canonical_obabel_redock_seed20260825_ex32__pose07
     RDKit          3D

 38 41  0  0  0  0  0  0  0  0999 V2000
  147.8900  135.1670   92.5640 O   0  0  0  0  0  0  0  0  0  0  0  0
  147.8480  136.2450   92.0770 C   0  0  0  0  0  0  0  0  0  0  0  0
  149.0800  136.9620   91.8090 N   0  0  0  0  0  0  0  0  0  0  0  0
  150.3770  136.3350   92.1520 C   0  0  1  0  0  0  0  0  0  0  0  0
  150.8560  135.4480   90.9860 C   0  0  0  0  0  0  0  0  0  0  0  0
  152.1070  135.8600   90.5170 N   0  0  0  0  0  0  0  0  0  0  0  0
  153.0350  135.8260   91.5350 C   0  0  0  0  0  0  0  0  0  0  0  0
  152.6380  136.7250   92.6690 C   0  0  0  0  0  0  0  0  0  0  0  0
  151.3840  137.3660   92.3850 C   0  0  0  0  0  0  0  0  0  0  0  0
  151.5340  138.1480   91.1600 C   0  0  0  0  0  0  0  0  0  0  0  0
  152.0150  137.1810   90.0120 C   0  0  0  0  0  0  0  0  0  0  0  0
  146.4920  136.8700   91.7320 C   0  0  0  0  0  0  0  0  0  0  0  0
  146.2490  138.1900   91.5620 C   0  0  0  0  0  0  0  0  0  0  0  0
  144.9210  138.6270   91.2380 C   0  0  0  0  0  0  0  0  0  0  0  0
  144.5130  139.9190   91.0330 C   0  0  0  0  0  0  0  0  0  0  0  0
  143.1800  140.1900   90.7240 C   0  0  0  0  0  0  0  0  0  0  0  0
  142.2540  139.1370   90.6240 C   0  0  0  0  0  0  0  0  0  0  0  0
  142.6640  137.8160   90.8310 C   0  0  0  0  0  0  0  0  0  0  0  0
  141.4860  136.4850   90.7000 Cl  0  0  0  0  0  0  0  0  0  0  0  0
  143.9770  137.5470   91.1350 C   0  0  0  0  0  0  0  0  0  0  0  0
  144.9700  136.0640   91.4810 S   0  0  0  0  0  0  0  0  0  0  0  0
  149.0540  137.8580   91.4020 H   0  0  0  0  0  0  0  0  0  0  0  0
  150.2404  135.7282   93.0593 H   0  0  0  0  0  0  0  0  0  0  0  0
  150.9284  134.4069   91.3337 H   0  0  0  0  0  0  0  0  0  0  0  0
  150.1307  135.5331   90.1634 H   0  0  0  0  0  0  0  0  0  0  0  0
  153.1187  134.7947   91.9085 H   0  0  0  0  0  0  0  0  0  0  0  0
  153.9985  136.1767   91.1366 H   0  0  0  0  0  0  0  0  0  0  0  0
  152.5399  136.1279   93.5876 H   0  0  0  0  0  0  0  0  0  0  0  0
  153.4112  137.4964   92.8001 H   0  0  0  0  0  0  0  0  0  0  0  0
  151.0847  138.0124   93.2233 H   0  0  0  0  0  0  0  0  0  0  0  0
  150.5690  138.5994   90.8863 H   0  0  0  0  0  0  0  0  0  0  0  0
  152.2690  138.9523   91.3112 H   0  0  0  0  0  0  0  0  0  0  0  0
  151.2924  137.2075   89.1830 H   0  0  0  0  0  0  0  0  0  0  0  0
  153.0013  137.5048   89.6480 H   0  0  0  0  0  0  0  0  0  0  0  0
  147.0626  138.9222   91.6712 H   0  0  0  0  0  0  0  0  0  0  0  0
  145.2373  140.7431   91.1122 H   0  0  0  0  0  0  0  0  0  0  0  0
  142.8535  141.2273   90.5586 H   0  0  0  0  0  0  0  0  0  0  0  0
  141.2029  139.3529   90.3820 H   0  0  0  0  0  0  0  0  0  0  0  0
  1  2  2  0
  2  3  1  0
  3  4  1  0
  4  5  1  0
  5  6  1  0
  6  7  1  0
  7  8  1  0
  8  9  1  0
  9 10  1  0
 10 11  1  0
  2 12  1  0
 12 13  2  0
 13 14  1  0
 14 15  2  0
 15 16  1  0
 16 17  2  0
 17 18  1  0
 18 19  1  0
 18 20  2  0
 20 21  1  0
  9  4  1  0
 21 12  1  0
 11  6  1  0
 20 14  1  0
  3 22  1  0
  4 23  1  1
  5 24  1  0
  5 25  1  0
  7 26  1  0
  7 27  1  0
  8 28  1  0
  8 29  1  0
  9 30  1  0
 10 31  1  0
 10 32  1  0
 11 33  1  0
 11 34  1  0
 13 35  1  0
 15 36  1  0
 16 37  1  0
 17 38  1  0
M  END
>  <meeko>  (7)
{"is_sidechain": false}

>  <source_group>  (7)
CHRNA7 canonical

>  <source_system>  (7)
CHRNA7_encenicline

>  <source_run>  (7)
canonical_obabel_redock_seed20260825_ex32

>  <source_seed>  (7)
20260825

>  <vina_pose_rank>  (7)
7

>  <vina_affinity_kcal_mol>  (7)
-7.0300000000000002

>  <vina_rmsd_to_crystal_angstrom>  (7)
9.2653999999999996

$$$$
