CHRNA7_encenicline__canonical_obabel_redock_seed20260825_ex32__pose01


 22 25  0  0  0  0  0  0  0  0999 V2000
  143.6160  140.7320   90.0310 O   0  0  0  0  0  0  0  0  0  0  0  0
  143.0690  139.7150   90.2950 C   0  0  0  0  0  0  0  0  0  0  0  0
  141.6240  139.6310   90.2110 N   0  0  0  0  0  0  0  0  0  0  0  0
  141.1630  138.7890   90.4260 H   0  0  0  0  0  0  0  0  0  0  0  0
  143.8980  138.4970   90.7180 C   0  0  0  0  0  0  0  0  0  0  0  0
  143.4090  137.2680   91.0020 C   0  0  0  0  0  0  0  0  0  0  0  0
  144.3130  136.2200   91.3840 C   0  0  0  0  0  0  0  0  0  0  0  0
  143.9800  134.9290   91.6990 C   0  0  0  0  0  0  0  0  0  0  0  0
  144.9760  134.0190   92.0560 C   0  0  0  0  0  0  0  0  0  0  0  0
  146.3200  134.4260   92.0920 C   0  0  0  0  0  0  0  0  0  0  0  0
  146.6660  135.7430   91.7710 C   0  0  0  0  0  0  0  0  0  0  0  0
  148.3740  136.2530   91.8160 Cl  0  0  0  0  0  0  0  0  0  0  0  0
  145.6870  136.6410   91.4190 C   0  0  0  0  0  0  0  0  0  0  0  0
  145.6220  138.3920   90.9340 S   0  0  0  0  0  0  0  0  0  0  0  0
  140.8480  140.8230   89.7990 C   0  0  0  0  0  0  0  0  0  0  0  0
  140.4990  140.7310   88.3000 C   0  0  0  0  0  0  0  0  0  0  0  0
  139.1170  140.7700   88.1000 N   0  0  0  0  0  0  0  0  0  0  0  0
  138.5890  141.9290   88.6260 C   0  0  0  0  0  0  0  0  0  0  0  0
  138.8530  142.0320   90.0990 C   0  0  0  0  0  0  0  0  0  0  0  0
  139.6010  140.8930   90.5550 C   0  0  0  0  0  0  0  0  0  0  0  0
  138.8240  139.6890   90.2720 C   0  0  0  0  0  0  0  0  0  0  0  0
  138.5120  139.6540   88.7270 C   0  0  0  0  0  0  0  0  0  0  0  0
  1  2  2  0
  2  3  1  0
  3 15  1  0
 15 16  1  0
 16 17  1  0
 17 18  1  0
 18 19  1  0
 19 20  1  0
 20 21  1  0
 21 22  1  0
  2  5  1  0
  5  6  2  0
  6  7  1  0
  7  8  2  0
  8  9  1  0
  9 10  2  0
 10 11  1  0
 11 12  1  0
 11 13  2  0
 13 14  1  0
 20 15  1  0
 14  5  1  0
 22 17  1  0
 13  7  1  0
  3  4  1  0
M  END
> <meeko>
{"is_sidechain": false}

> <source_group>
CHRNA7 canonical

> <source_system>
CHRNA7_encenicline

> <source_run>
canonical_obabel_redock_seed20260825_ex32

> <source_seed>
20260825

> <vina_pose_rank>
1

> <vina_affinity_kcal_mol>
-9.8520000000000003

> <vina_rmsd_to_crystal_angstrom>
0.30109999999999998

> <minimizedAffinity>
-9.85073

> <CNNscore>
0.9538094997

> <CNNaffinity>
6.9352774620

> <CNN_VS>
6.6149334908

> <CNNaffinity_variance>
0.0172565207

$$$$
CHRNA7_encenicline__canonical_obabel_redock_seed20260825_ex32__pose02


 22 25  0  0  0  0  0  0  0  0999 V2000
  143.8370  140.8540   89.9430 O   0  0  0  0  0  0  0  0  0  0  0  0
  143.3450  139.8120   90.2160 C   0  0  0  0  0  0  0  0  0  0  0  0
  141.9090  139.6430   90.1070 N   0  0  0  0  0  0  0  0  0  0  0  0
  141.4930  138.7790   90.3300 H   0  0  0  0  0  0  0  0  0  0  0  0
  144.2340  138.6520   90.6780 C   0  0  0  0  0  0  0  0  0  0  0  0
  145.5710  138.7100   90.8770 C   0  0  0  0  0  0  0  0  0  0  0  0
  146.2710  137.5360   91.3150 C   0  0  0  0  0  0  0  0  0  0  0  0
  147.6150  137.4310   91.5610 C   0  0  0  0  0  0  0  0  0  0  0  0
  148.1540  136.2150   91.9830 C   0  0  0  0  0  0  0  0  0  0  0  0
  147.3180  135.0980   92.1550 C   0  0  0  0  0  0  0  0  0  0  0  0
  145.9460  135.2000   91.9060 C   0  0  0  0  0  0  0  0  0  0  0  0
  144.8910  133.7800   92.1280 Cl  0  0  0  0  0  0  0  0  0  0  0  0
  145.4130  136.3960   91.4900 C   0  0  0  0  0  0  0  0  0  0  0  0
  143.7620  137.0190   91.0520 S   0  0  0  0  0  0  0  0  0  0  0  0
  141.0740  140.7800   89.6580 C   0  0  0  0  0  0  0  0  0  0  0  0
  140.6600  140.5790   88.1870 C   0  0  0  0  0  0  0  0  0  0  0  0
  139.2690  140.5610   88.0500 N   0  0  0  0  0  0  0  0  0  0  0  0
  138.7260  141.7340   88.5270 C   0  0  0  0  0  0  0  0  0  0  0  0
  139.0540  141.9410   89.9760 C   0  0  0  0  0  0  0  0  0  0  0  0
  139.8610  140.8590   90.4670 C   0  0  0  0  0  0  0  0  0  0  0  0
  139.1140  139.6150   90.2990 C   0  0  0  0  0  0  0  0  0  0  0  0
  138.7330  139.4690   88.7760 C   0  0  0  0  0  0  0  0  0  0  0  0
  1  2  2  0
  2  3  1  0
  3 15  1  0
 15 16  1  0
 16 17  1  0
 17 18  1  0
 18 19  1  0
 19 20  1  0
 20 21  1  0
 21 22  1  0
  2  5  1  0
  5  6  2  0
  6  7  1  0
  7  8  2  0
  8  9  1  0
  9 10  2  0
 10 11  1  0
 11 12  1  0
 11 13  2  0
 13 14  1  0
 20 15  1  0
 14  5  1  0
 22 17  1  0
 13  7  1  0
  3  4  1  0
M  END
> <meeko>
{"is_sidechain": false}

> <source_group>
CHRNA7 canonical

> <source_system>
CHRNA7_encenicline

> <source_run>
canonical_obabel_redock_seed20260825_ex32

> <source_seed>
20260825

> <vina_pose_rank>
2

> <vina_affinity_kcal_mol>
-9.1110000000000007

> <vina_rmsd_to_crystal_angstrom>
1.8478000000000001

> <minimizedAffinity>
-9.12471

> <CNNscore>
0.9606457949

> <CNNaffinity>
7.1178603172

> <CNN_VS>
6.8377428055

> <CNNaffinity_variance>
0.0037191717

$$$$
CHRNA7_encenicline__canonical_obabel_redock_seed20260825_ex32__pose03


 22 25  0  0  0  0  0  0  0  0999 V2000
  140.1160  136.5170   90.3300 O   0  0  0  0  0  0  0  0  0  0  0  0
  140.9850  137.3210   90.3590 C   0  0  0  0  0  0  0  0  0  0  0  0
  140.7100  138.6920   89.9750 N   0  0  0  0  0  0  0  0  0  0  0  0
  141.4260  139.3670   89.9980 H   0  0  0  0  0  0  0  0  0  0  0  0
  142.3900  136.9030   90.8070 C   0  0  0  0  0  0  0  0  0  0  0  0
  142.7910  135.6390   91.0750 C   0  0  0  0  0  0  0  0  0  0  0  0
  144.1460  135.4010   91.4840 C   0  0  0  0  0  0  0  0  0  0  0  0
  144.7070  134.1890   91.7890 C   0  0  0  0  0  0  0  0  0  0  0  0
  146.0460  134.1160   92.1750 C   0  0  0  0  0  0  0  0  0  0  0  0
  146.8200  135.2870   92.2510 C   0  0  0  0  0  0  0  0  0  0  0  0
  146.2540  136.5270   91.9410 C   0  0  0  0  0  0  0  0  0  0  0  0
  147.2410  138.0080   92.0370 Cl  0  0  0  0  0  0  0  0  0  0  0  0
  144.9350  136.6010   91.5600 C   0  0  0  0  0  0  0  0  0  0  0  0
  143.7790  137.9170   91.0740 S   0  0  0  0  0  0  0  0  0  0  0  0
  139.3440  139.0690   89.5470 C   0  0  0  0  0  0  0  0  0  0  0  0
  138.6310  139.8360   90.6780 C   0  0  0  0  0  0  0  0  0  0  0  0
  138.2340  141.1070   90.2560 N   0  0  0  0  0  0  0  0  0  0  0  0
  137.3970  141.0100   89.1660 C   0  0  0  0  0  0  0  0  0  0  0  0
  138.0720  140.3220   88.0170 C   0  0  0  0  0  0  0  0  0  0  0  0
  139.4090  139.9390   88.3760 C   0  0  0  0  0  0  0  0  0  0  0  0
  140.1510  141.1440   88.7400 C   0  0  0  0  0  0  0  0  0  0  0  0
  139.3740  141.8700   89.9040 C   0  0  0  0  0  0  0  0  0  0  0  0
  1  2  2  0
  2  3  1  0
  3 15  1  0
 15 16  1  0
 16 17  1  0
 17 18  1  0
 18 19  1  0
 19 20  1  0
 20 21  1  0
 21 22  1  0
  2  5  1  0
  5  6  2  0
  6  7  1  0
  7  8  2  0
  8  9  1  0
  9 10  2  0
 10 11  1  0
 11 12  1  0
 11 13  2  0
 13 14  1  0
 20 15  1  0
 14  5  1  0
 22 17  1  0
 13  7  1  0
  3  4  1  0
M  END
> <meeko>
{"is_sidechain": false}

> <source_group>
CHRNA7 canonical

> <source_system>
CHRNA7_encenicline

> <source_run>
canonical_obabel_redock_seed20260825_ex32

> <source_seed>
20260825

> <vina_pose_rank>
3

> <vina_affinity_kcal_mol>
-7.9450000000000003

> <vina_rmsd_to_crystal_angstrom>
2.3275000000000001

> <minimizedAffinity>
-7.96452

> <CNNscore>
0.7941784263

> <CNNaffinity>
7.2171578407

> <CNN_VS>
5.7317109108

> <CNNaffinity_variance>
0.1350529045

$$$$
CHRNA7_encenicline__canonical_obabel_redock_seed20260825_ex32__pose04


 22 25  0  0  0  0  0  0  0  0999 V2000
  145.7300  138.8850   93.0390 O   0  0  0  0  0  0  0  0  0  0  0  0
  145.4760  138.4490   91.9680 C   0  0  0  0  0  0  0  0  0  0  0  0
  146.4930  137.7370   91.2200 N   0  0  0  0  0  0  0  0  0  0  0  0
  146.2890  137.3690   90.3300 H   0  0  0  0  0  0  0  0  0  0  0  0
  144.0710  138.6390   91.3860 C   0  0  0  0  0  0  0  0  0  0  0  0
  143.1460  137.6660   91.2160 C   0  0  0  0  0  0  0  0  0  0  0  0
  141.8660  137.9980   90.6580 C   0  0  0  0  0  0  0  0  0  0  0  0
  140.8280  137.1350   90.4250 C   0  0  0  0  0  0  0  0  0  0  0  0
  139.6370  137.6080   89.8720 C   0  0  0  0  0  0  0  0  0  0  0  0
  139.5030  138.9710   89.5540 C   0  0  0  0  0  0  0  0  0  0  0  0
  140.5590  139.8570   89.7900 C   0  0  0  0  0  0  0  0  0  0  0  0
  140.3820  141.5840   89.3870 Cl  0  0  0  0  0  0  0  0  0  0  0  0
  141.7330  139.3930   90.3350 C   0  0  0  0  0  0  0  0  0  0  0  0
  143.3330  140.1090   90.8150 S   0  0  0  0  0  0  0  0  0  0  0  0
  147.8430  137.5670   91.8060 C   0  0  0  0  0  0  0  0  0  0  0  0
  148.1110  136.0750   92.0850 C   0  0  0  0  0  0  0  0  0  0  0  0
  149.2430  135.6270   91.4000 N   0  0  0  0  0  0  0  0  0  0  0  0
  150.3460  136.3690   91.7600 C   0  0  0  0  0  0  0  0  0  0  0  0
  150.1530  137.8240   91.4500 C   0  0  0  0  0  0  0  0  0  0  0  0
  148.8570  138.0450   90.8710 C   0  0  0  0  0  0  0  0  0  0  0  0
  148.7600  137.2580   89.6440 C   0  0  0  0  0  0  0  0  0  0  0  0
  149.0340  135.7480   90.0040 C   0  0  0  0  0  0  0  0  0  0  0  0
  1  2  2  0
  2  3  1  0
  3 15  1  0
 15 16  1  0
 16 17  1  0
 17 18  1  0
 18 19  1  0
 19 20  1  0
 20 21  1  0
 21 22  1  0
  2  5  1  0
  5  6  2  0
  6  7  1  0
  7  8  2  0
  8  9  1  0
  9 10  2  0
 10 11  1  0
 11 12  1  0
 11 13  2  0
 13 14  1  0
 20 15  1  0
 14  5  1  0
 22 17  1  0
 13  7  1  0
  3  4  1  0
M  END
> <meeko>
{"is_sidechain": false}

> <source_group>
CHRNA7 canonical

> <source_system>
CHRNA7_encenicline

> <source_run>
canonical_obabel_redock_seed20260825_ex32

> <source_seed>
20260825

> <vina_pose_rank>
4

> <vina_affinity_kcal_mol>
-7.633

> <vina_rmsd_to_crystal_angstrom>
7.9809999999999999

> <minimizedAffinity>
-7.63672

> <CNNscore>
0.2165199816

> <CNNaffinity>
5.0069541931

> <CNN_VS>
1.0841056108

> <CNNaffinity_variance>
0.4227088690

$$$$
CHRNA7_encenicline__canonical_obabel_redock_seed20260825_ex32__pose05


 22 25  0  0  0  0  0  0  0  0999 V2000
  146.1480  138.6610   93.0240 O   0  0  0  0  0  0  0  0  0  0  0  0
  145.8700  138.2300   91.9560 C   0  0  0  0  0  0  0  0  0  0  0  0
  146.9110  137.6860   91.1060 N   0  0  0  0  0  0  0  0  0  0  0  0
  146.6890  137.3240   90.2180 H   0  0  0  0  0  0  0  0  0  0  0  0
  144.4110  138.2480   91.4880 C   0  0  0  0  0  0  0  0  0  0  0  0
  143.7110  139.3470   91.1220 C   0  0  0  0  0  0  0  0  0  0  0  0
  142.3460  139.2070   90.7020 C   0  0  0  0  0  0  0  0  0  0  0  0
  141.5070  140.2130   90.3010 C   0  0  0  0  0  0  0  0  0  0  0  0
  140.1970  139.9200   89.9200 C   0  0  0  0  0  0  0  0  0  0  0  0
  139.7380  138.5920   89.9470 C   0  0  0  0  0  0  0  0  0  0  0  0
  140.5900  137.5600   90.3540 C   0  0  0  0  0  0  0  0  0  0  0  0
  140.0030  135.8770   90.3840 Cl  0  0  0  0  0  0  0  0  0  0  0  0
  141.8810  137.8460   90.7300 C   0  0  0  0  0  0  0  0  0  0  0  0
  143.3210  136.9030   91.3130 S   0  0  0  0  0  0  0  0  0  0  0  0
  148.3130  137.6810   91.5830 C   0  0  0  0  0  0  0  0  0  0  0  0
  148.6930  136.2720   92.0820 C   0  0  0  0  0  0  0  0  0  0  0  0
  149.7880  135.7650   91.3780 N   0  0  0  0  0  0  0  0  0  0  0  0
  150.8710  136.6070   91.5060 C   0  0  0  0  0  0  0  0  0  0  0  0
  150.5660  137.9760   90.9760 C   0  0  0  0  0  0  0  0  0  0  0  0
  149.2150  138.0360   90.4910 C   0  0  0  0  0  0  0  0  0  0  0  0
  149.0620  137.0460   89.4280 C   0  0  0  0  0  0  0  0  0  0  0  0
  149.4560  135.6340   90.0080 C   0  0  0  0  0  0  0  0  0  0  0  0
  1  2  2  0
  2  3  1  0
  3 15  1  0
 15 16  1  0
 16 17  1  0
 17 18  1  0
 18 19  1  0
 19 20  1  0
 20 21  1  0
 21 22  1  0
  2  5  1  0
  5  6  2  0
  6  7  1  0
  7  8  2  0
  8  9  1  0
  9 10  2  0
 10 11  1  0
 11 12  1  0
 11 13  2  0
 13 14  1  0
 20 15  1  0
 14  5  1  0
 22 17  1  0
 13  7  1  0
  3  4  1  0
M  END
> <meeko>
{"is_sidechain": false}

> <source_group>
CHRNA7 canonical

> <source_system>
CHRNA7_encenicline

> <source_run>
canonical_obabel_redock_seed20260825_ex32

> <source_seed>
20260825

> <vina_pose_rank>
5

> <vina_affinity_kcal_mol>
-7.5350000000000001

> <vina_rmsd_to_crystal_angstrom>
8.1488999999999994

> <minimizedAffinity>
-7.55082

> <CNNscore>
0.1969489604

> <CNNaffinity>
5.1274132729

> <CNN_VS>
1.0098387003

> <CNNaffinity_variance>
0.4577814639

$$$$
CHRNA7_encenicline__canonical_obabel_redock_seed20260825_ex32__pose06


 22 25  0  0  0  0  0  0  0  0999 V2000
  144.8510  140.7230   91.1830 O   0  0  0  0  0  0  0  0  0  0  0  0
  144.2550  139.7700   90.8090 C   0  0  0  0  0  0  0  0  0  0  0  0
  144.8770  138.4610   90.8720 N   0  0  0  0  0  0  0  0  0  0  0  0
  144.3880  137.6640   90.5650 H   0  0  0  0  0  0  0  0  0  0  0  0
  142.8310  139.9310   90.2670 C   0  0  0  0  0  0  0  0  0  0  0  0
  141.7420  140.2760   90.9920 C   0  0  0  0  0  0  0  0  0  0  0  0
  140.4680  140.3900   90.3420 C   0  0  0  0  0  0  0  0  0  0  0  0
  139.2780  140.7300   90.9300 C   0  0  0  0  0  0  0  0  0  0  0  0
  138.1150  140.7990   90.1630 C   0  0  0  0  0  0  0  0  0  0  0  0
  138.1630  140.5190   88.7860 C   0  0  0  0  0  0  0  0  0  0  0  0
  139.3750  140.1720   88.1800 C   0  0  0  0  0  0  0  0  0  0  0  0
  139.4300  139.8200   86.4330 Cl  0  0  0  0  0  0  0  0  0  0  0  0
  140.5220  140.1040   88.9340 C   0  0  0  0  0  0  0  0  0  0  0  0
  142.2720  139.7160   88.6330 S   0  0  0  0  0  0  0  0  0  0  0  0
  146.2550  138.3340   91.4000 C   0  0  0  0  0  0  0  0  0  0  0  0
  146.3260  137.1670   92.4050 C   0  0  0  0  0  0  0  0  0  0  0  0
  147.2650  136.2120   92.0050 N   0  0  0  0  0  0  0  0  0  0  0  0
  148.5100  136.7880   91.8770 C   0  0  0  0  0  0  0  0  0  0  0  0
  148.5010  137.8920   90.8620 C   0  0  0  0  0  0  0  0  0  0  0  0
  147.1850  138.0550   90.3100 C   0  0  0  0  0  0  0  0  0  0  0  0
  146.7910  136.7980   89.6800 C   0  0  0  0  0  0  0  0  0  0  0  0
  146.8770  135.6550   90.7610 C   0  0  0  0  0  0  0  0  0  0  0  0
  1  2  2  0
  2  3  1  0
  3 15  1  0
 15 16  1  0
 16 17  1  0
 17 18  1  0
 18 19  1  0
 19 20  1  0
 20 21  1  0
 21 22  1  0
  2  5  1  0
  5  6  2  0
  6  7  1  0
  7  8  2  0
  8  9  1  0
  9 10  2  0
 10 11  1  0
 11 12  1  0
 11 13  2  0
 13 14  1  0
 20 15  1  0
 14  5  1  0
 22 17  1  0
 13  7  1  0
  3  4  1  0
M  END
> <meeko>
{"is_sidechain": false}

> <source_group>
CHRNA7 canonical

> <source_system>
CHRNA7_encenicline

> <source_run>
canonical_obabel_redock_seed20260825_ex32

> <source_seed>
20260825

> <vina_pose_rank>
6

> <vina_affinity_kcal_mol>
-7.391

> <vina_rmsd_to_crystal_angstrom>
7.8227000000000002

> <minimizedAffinity>
-7.39728

> <CNNscore>
0.1540062726

> <CNNaffinity>
5.2953910828

> <CNN_VS>
0.8155234456

> <CNNaffinity_variance>
0.3337428570

$$$$
CHRNA7_encenicline__canonical_obabel_redock_seed20260825_ex32__pose07


 22 25  0  0  0  0  0  0  0  0999 V2000
  147.8900  135.1670   92.5640 O   0  0  0  0  0  0  0  0  0  0  0  0
  147.8480  136.2450   92.0770 C   0  0  0  0  0  0  0  0  0  0  0  0
  149.0800  136.9620   91.8090 N   0  0  0  0  0  0  0  0  0  0  0  0
  149.0540  137.8580   91.4020 H   0  0  0  0  0  0  0  0  0  0  0  0
  146.4920  136.8700   91.7320 C   0  0  0  0  0  0  0  0  0  0  0  0
  146.2490  138.1900   91.5620 C   0  0  0  0  0  0  0  0  0  0  0  0
  144.9210  138.6270   91.2380 C   0  0  0  0  0  0  0  0  0  0  0  0
  144.5130  139.9190   91.0330 C   0  0  0  0  0  0  0  0  0  0  0  0
  143.1800  140.1900   90.7240 C   0  0  0  0  0  0  0  0  0  0  0  0
  142.2540  139.1370   90.6240 C   0  0  0  0  0  0  0  0  0  0  0  0
  142.6640  137.8160   90.8310 C   0  0  0  0  0  0  0  0  0  0  0  0
  141.4860  136.4850   90.7000 Cl  0  0  0  0  0  0  0  0  0  0  0  0
  143.9770  137.5470   91.1350 C   0  0  0  0  0  0  0  0  0  0  0  0
  144.9700  136.0640   91.4810 S   0  0  0  0  0  0  0  0  0  0  0  0
  150.3770  136.3350   92.1520 C   0  0  0  0  0  0  0  0  0  0  0  0
  150.8560  135.4480   90.9860 C   0  0  0  0  0  0  0  0  0  0  0  0
  152.1070  135.8600   90.5170 N   0  0  0  0  0  0  0  0  0  0  0  0
  153.0350  135.8260   91.5350 C   0  0  0  0  0  0  0  0  0  0  0  0
  152.6380  136.7250   92.6690 C   0  0  0  0  0  0  0  0  0  0  0  0
  151.3840  137.3660   92.3850 C   0  0  0  0  0  0  0  0  0  0  0  0
  151.5340  138.1480   91.1600 C   0  0  0  0  0  0  0  0  0  0  0  0
  152.0150  137.1810   90.0120 C   0  0  0  0  0  0  0  0  0  0  0  0
  1  2  2  0
  2  3  1  0
  3 15  1  0
 15 16  1  0
 16 17  1  0
 17 18  1  0
 18 19  1  0
 19 20  1  0
 20 21  1  0
 21 22  1  0
  2  5  1  0
  5  6  2  0
  6  7  1  0
  7  8  2  0
  8  9  1  0
  9 10  2  0
 10 11  1  0
 11 12  1  0
 11 13  2  0
 13 14  1  0
 20 15  1  0
 14  5  1  0
 22 17  1  0
 13  7  1  0
  3  4  1  0
M  END
> <meeko>
{"is_sidechain": false}

> <source_group>
CHRNA7 canonical

> <source_system>
CHRNA7_encenicline

> <source_run>
canonical_obabel_redock_seed20260825_ex32

> <source_seed>
20260825

> <vina_pose_rank>
7

> <vina_affinity_kcal_mol>
-7.0300000000000002

> <vina_rmsd_to_crystal_angstrom>
9.2653999999999996

> <minimizedAffinity>
-7.08398

> <CNNscore>
0.2135240734

> <CNNaffinity>
4.9994735718

> <CNN_VS>
1.0675079823

> <CNNaffinity_variance>
0.4022991955

$$$$
