outputs/docking_campaign/systems/KIT_masitinib/prepared/imatinib_STI_A3_crystal.pdb
 OpenBabel08242622313D

 69 73  0  0  1  0  0  0  0  0999 V2000
   32.6960   24.7000   47.5410 C   0  0  0  0  0  0  0  0  0  0  0  0
   31.8180   25.4090   46.7190 C   0  0  0  0  0  0  0  0  0  0  0  0
   30.6070   24.8220   46.3550 C   0  0  0  0  0  0  0  0  0  0  0  0
   30.2890   23.5400   46.7930 C   0  0  0  0  0  0  0  0  0  0  0  0
   31.1560   22.8770   47.5750 N   0  0  0  0  0  0  0  0  0  0  0  0
   32.3300   23.4240   47.9550 C   0  0  0  0  0  0  0  0  0  0  0  0
   29.6570   25.5420   45.4790 C   0  0  1  0  0  0  0  0  0  0  0  0
   29.9720   26.7830   44.9260 C   0  0  0  0  0  0  0  0  0  0  0  0
   29.0340   27.3880   44.0930 C   0  0  0  0  0  0  0  0  0  0  0  0
   27.8540   26.7890   43.8490 N   0  0  0  0  0  0  0  0  0  0  0  0
   27.5660   25.5940   44.4210 C   0  0  0  0  0  0  0  0  0  0  0  0
   28.4650   24.9750   45.2160 N   0  0  0  0  0  0  0  0  0  0  0  0
   26.4040   24.9540   44.2010 N   0  0  0  0  0  0  0  0  0  0  0  0
   25.3470   25.5110   43.5600 C   0  0  0  0  0  0  0  0  0  0  0  0
   24.2990   26.0650   44.2940 C   0  0  0  0  0  0  0  0  0  0  0  0
   23.2070   26.6100   43.6280 C   0  0  0  0  0  0  0  0  0  0  0  0
   23.1490   26.6030   42.2330 C   0  0  0  0  0  0  0  0  0  0  0  0
   24.1950   26.0540   41.4950 C   0  0  0  0  0  0  0  0  0  0  0  0
   25.2830   25.4900   42.1650 C   0  0  0  0  0  0  0  0  0  0  0  0
   24.0610   26.0500   40.0970 N   0  0  0  0  0  0  0  0  0  0  0  0
   24.9820   25.6240   39.2380 C   0  0  0  0  0  0  0  0  0  0  0  0
   24.6520   25.6310   37.7790 C   0  0  0  0  0  0  0  0  0  0  0  0
   25.4430   24.8950   36.8960 C   0  0  0  0  0  0  0  0  0  0  0  0
   25.1350   24.8970   35.5390 C   0  0  0  0  0  0  0  0  0  0  0  0
   24.0400   25.6290   35.0810 C   0  0  0  0  0  0  0  0  0  0  0  0
   23.2420   26.3570   35.9610 C   0  0  0  0  0  0  0  0  0  0  0  0
   23.5530   26.3490   37.3180 C   0  0  0  0  0  0  0  0  0  0  0  0
   23.7080   25.6150   33.6100 C   0  0  0  0  0  0  0  0  0  0  0  0
   23.6120   26.9460   33.0270 N   0  0  0  0  0  0  0  0  0  0  0  0
   24.7780   27.8090   33.1870 C   0  0  0  0  0  0  0  0  0  0  0  0
   24.4070   29.2250   32.7690 C   0  0  0  0  0  0  0  0  0  0  0  0
   23.8580   29.1530   31.4220 N   0  0  0  0  0  0  0  0  0  0  0  0
   23.8300   30.4370   30.7290 C   0  0  0  0  0  0  0  0  0  0  0  0
   22.6960   28.3020   31.1910 C   0  0  0  0  0  0  0  0  0  0  0  0
   22.9660   26.9000   31.7180 C   0  0  0  0  0  0  0  0  0  0  0  0
   26.0670   25.2150   39.5910 O   0  0  0  0  0  0  0  0  0  0  0  0
   24.3250   26.0840   45.8060 C   0  0  0  0  0  0  0  0  0  0  0  0
   33.5951   25.1130   47.8343 H   0  0  0  0  0  0  0  0  0  0  0  0
   32.0621   26.3546   46.3854 H   0  0  0  0  0  0  0  0  0  0  0  0
   29.3951   23.1029   46.5193 H   0  0  0  0  0  0  0  0  0  0  0  0
   32.9669   22.8860   48.5632 H   0  0  0  0  0  0  0  0  0  0  0  0
   30.4006   26.3113   45.4677 H   0  0  0  0  0  0  0  0  0  0  0  0
   30.8748   27.2402   45.1284 H   0  0  0  0  0  0  0  0  0  0  0  0
   29.2451   28.3009   43.6604 H   0  0  0  0  0  0  0  0  0  0  0  0
   26.3157   24.0281   44.5238 H   0  0  0  0  0  0  0  0  0  0  0  0
   22.4321   27.0236   44.1698 H   0  0  0  0  0  0  0  0  0  0  0  0
   22.3310   27.0046   41.7486 H   0  0  0  0  0  0  0  0  0  0  0  0
   26.0463   25.0539   41.6245 H   0  0  0  0  0  0  0  0  0  0  0  0
   23.2164   26.3903   39.7227 H   0  0  0  0  0  0  0  0  0  0  0  0
   26.2491   24.3541   37.2462 H   0  0  0  0  0  0  0  0  0  0  0  0
   25.7140   24.3595   34.8750 H   0  0  0  0  0  0  0  0  0  0  0  0
   22.4327   26.8940   35.6122 H   0  0  0  0  0  0  0  0  0  0  0  0
   22.9670   26.8769   37.9835 H   0  0  0  0  0  0  0  0  0  0  0  0
   22.7693   25.1185   33.4787 H   0  0  0  0  0  0  0  0  0  0  0  0
   24.5067   25.1077   33.1103 H   0  0  0  0  0  0  0  0  0  0  0  0
   25.5767   27.4508   32.5716 H   0  0  0  0  0  0  0  0  0  0  0  0
   25.0937   27.8046   34.2094 H   0  0  0  0  0  0  0  0  0  0  0  0
   25.2769   29.8480   32.7764 H   0  0  0  0  0  0  0  0  0  0  0  0
   23.6917   29.6431   33.4461 H   0  0  0  0  0  0  0  0  0  0  0  0
   24.7190   30.9861   30.9594 H   0  0  0  0  0  0  0  0  0  0  0  0
   22.9738   30.9949   31.0462 H   0  0  0  0  0  0  0  0  0  0  0  0
   23.7767   30.2714   29.6732 H   0  0  0  0  0  0  0  0  0  0  0  0
   22.4951   28.2535   30.1411 H   0  0  0  0  0  0  0  0  0  0  0  0
   21.8513   28.7135   31.7029 H   0  0  0  0  0  0  0  0  0  0  0  0
   22.0380   26.3744   31.8045 H   0  0  0  0  0  0  0  0  0  0  0  0
   23.6191   26.3996   31.0340 H   0  0  0  0  0  0  0  0  0  0  0  0
   25.2289   25.6285   46.1529 H   0  0  0  0  0  0  0  0  0  0  0  0
   23.4841   25.5410   46.1840 H   0  0  0  0  0  0  0  0  0  0  0  0
   24.2804   27.0959   46.1508 H   0  0  0  0  0  0  0  0  0  0  0  0
  1  2  2  0  0  0  0
  1  6  1  0  0  0  0
  1 38  1  0  0  0  0
  2  3  1  0  0  0  0
  2 39  1  0  0  0  0
  3  4  2  0  0  0  0
  3  7  1  0  0  0  0
  4  5  1  0  0  0  0
  4 40  1  0  0  0  0
  5  6  2  0  0  0  0
  6 41  1  0  0  0  0
  7  8  1  0  0  0  0
  7 12  1  0  0  0  0
  7 42  1  1  0  0  0
  8  9  2  0  0  0  0
  8 43  1  0  0  0  0
  9 10  1  0  0  0  0
  9 44  1  0  0  0  0
 10 11  2  0  0  0  0
 11 12  2  0  0  0  0
 11 13  1  0  0  0  0
 13 14  1  0  0  0  0
 13 45  1  0  0  0  0
 14 15  2  0  0  0  0
 14 19  1  0  0  0  0
 15 16  1  0  0  0  0
 15 37  1  0  0  0  0
 16 17  2  0  0  0  0
 16 46  1  0  0  0  0
 17 18  1  0  0  0  0
 17 47  1  0  0  0  0
 18 19  2  0  0  0  0
 18 20  1  0  0  0  0
 19 48  1  0  0  0  0
 20 21  1  0  0  0  0
 20 49  1  0  0  0  0
 21 22  1  0  0  0  0
 21 36  2  0  0  0  0
 22 23  2  0  0  0  0
 22 27  1  0  0  0  0
 23 24  1  0  0  0  0
 23 50  1  0  0  0  0
 24 25  2  0  0  0  0
 24 51  1  0  0  0  0
 25 26  1  0  0  0  0
 25 28  1  0  0  0  0
 26 27  2  0  0  0  0
 26 52  1  0  0  0  0
 27 53  1  0  0  0  0
 28 29  1  0  0  0  0
 28 54  1  0  0  0  0
 28 55  1  0  0  0  0
 29 30  1  0  0  0  0
 29 35  1  0  0  0  0
 30 31  1  0  0  0  0
 30 56  1  0  0  0  0
 30 57  1  0  0  0  0
 31 32  1  0  0  0  0
 31 58  1  0  0  0  0
 31 59  1  0  0  0  0
 32 33  1  0  0  0  0
 32 34  1  0  0  0  0
 33 60  1  0  0  0  0
 33 61  1  0  0  0  0
 33 62  1  0  0  0  0
 34 35  1  0  0  0  0
 34 63  1  0  0  0  0
 34 64  1  0  0  0  0
 35 65  1  0  0  0  0
 35 66  1  0  0  0  0
 37 67  1  0  0  0  0
 37 68  1  0  0  0  0
 37 69  1  0  0  0  0
M  END
$$$$
