masitinib
     RDKit          3D

 66 70  0  0  0  0  0  0  0  0999 V2000
    5.4113    1.1534    3.9965 C   0  0  0  0  0  0  0  0  0  0  0  0
    4.1212    0.9254    3.2581 C   0  0  0  0  0  0  0  0  0  0  0  0
    2.9647    1.5946    3.6775 C   0  0  0  0  0  0  0  0  0  0  0  0
    1.7507    1.4029    3.0139 C   0  0  0  0  0  0  0  0  0  0  0  0
    1.6660    0.5425    1.9154 C   0  0  0  0  0  0  0  0  0  0  0  0
    2.8220   -0.1052    1.4769 C   0  0  0  0  0  0  0  0  0  0  0  0
    4.0517    0.0803    2.1354 C   0  0  0  0  0  0  0  0  0  0  0  0
    5.2076   -0.5793    1.6519 N   0  0  0  0  0  0  0  0  0  0  0  0
    5.9684   -0.1009    0.6286 C   0  0  0  0  0  0  0  0  0  0  0  0
    6.7083   -0.9063   -0.1038 N   0  0  0  0  0  0  0  0  0  0  0  0
    7.4168   -0.2082   -1.0713 C   0  0  0  0  0  0  0  0  0  0  0  0
    7.1892    1.1530   -1.0658 C   0  0  0  0  0  0  0  0  0  0  0  0
    6.0868    1.5629    0.1792 S   0  0  0  0  0  0  0  0  0  0  0  0
    8.3137   -0.9068   -1.9855 C   0  0  0  0  0  0  0  0  0  0  0  0
    9.1204   -0.2551   -2.9248 C   0  0  0  0  0  0  0  0  0  0  0  0
    9.9607   -0.9955   -3.7585 C   0  0  0  0  0  0  0  0  0  0  0  0
    9.9718   -2.3739   -3.6303 C   0  0  0  0  0  0  0  0  0  0  0  0
    9.2135   -3.0449   -2.7410 N   0  0  0  0  0  0  0  0  0  0  0  0
    8.4062   -2.2977   -1.9434 C   0  0  0  0  0  0  0  0  0  0  0  0
    0.3992    0.3952    1.3115 N   0  0  0  0  0  0  0  0  0  0  0  0
    0.0479   -0.4831    0.3017 C   0  0  0  0  0  0  0  0  0  0  0  0
    0.7629   -1.3304   -0.2186 O   0  0  0  0  0  0  0  0  0  0  0  0
   -1.3744   -0.3893   -0.1315 C   0  0  0  0  0  0  0  0  0  0  0  0
   -2.0573   -1.5683   -0.4445 C   0  0  0  0  0  0  0  0  0  0  0  0
   -3.3964   -1.5166   -0.8356 C   0  0  0  0  0  0  0  0  0  0  0  0
   -4.0680   -0.2876   -0.9278 C   0  0  0  0  0  0  0  0  0  0  0  0
   -3.3669    0.8927   -0.6408 C   0  0  0  0  0  0  0  0  0  0  0  0
   -2.0268    0.8447   -0.2453 C   0  0  0  0  0  0  0  0  0  0  0  0
   -5.5192   -0.2352   -1.3713 C   0  0  0  0  0  0  0  0  0  0  0  0
   -6.3946   -1.0927   -0.5520 N   0  0  0  0  0  0  0  0  0  0  0  0
   -7.6799   -1.3221   -1.2375 C   0  0  0  0  0  0  0  0  0  0  0  0
   -8.6082   -0.0823   -1.3571 C   0  0  0  0  0  0  0  0  0  0  0  0
   -8.3907    0.9412   -0.3164 N   0  0  0  0  0  0  0  0  0  0  0  0
   -7.9728    0.3037    0.9390 C   0  0  0  0  0  0  0  0  0  0  0  0
   -6.6510   -0.4968    0.7820 C   0  0  0  0  0  0  0  0  0  0  0  0
   -9.5745    1.7738   -0.1348 C   0  0  0  0  0  0  0  0  0  0  0  0
    5.9869    0.2255    4.0826 H   0  0  0  0  0  0  0  0  0  0  0  0
    6.0138    1.9073    3.4812 H   0  0  0  0  0  0  0  0  0  0  0  0
    5.2231    1.5025    5.0184 H   0  0  0  0  0  0  0  0  0  0  0  0
    3.0013    2.2649    4.5329 H   0  0  0  0  0  0  0  0  0  0  0  0
    0.8728    1.9314    3.3768 H   0  0  0  0  0  0  0  0  0  0  0  0
    2.7987   -0.7559    0.6085 H   0  0  0  0  0  0  0  0  0  0  0  0
    5.0310   -1.5730    1.5298 H   0  0  0  0  0  0  0  0  0  0  0  0
    7.5956    1.9245   -1.7010 H   0  0  0  0  0  0  0  0  0  0  0  0
    9.1184    0.8255   -3.0254 H   0  0  0  0  0  0  0  0  0  0  0  0
   10.5930   -0.5057   -4.4907 H   0  0  0  0  0  0  0  0  0  0  0  0
   10.6094   -2.9916   -4.2568 H   0  0  0  0  0  0  0  0  0  0  0  0
    7.8125   -2.8794   -1.2411 H   0  0  0  0  0  0  0  0  0  0  0  0
   -0.3515    0.9279    1.7305 H   0  0  0  0  0  0  0  0  0  0  0  0
   -1.5521   -2.5297   -0.3791 H   0  0  0  0  0  0  0  0  0  0  0  0
   -3.9235   -2.4409   -1.0644 H   0  0  0  0  0  0  0  0  0  0  0  0
   -3.8622    1.8569   -0.7305 H   0  0  0  0  0  0  0  0  0  0  0  0
   -1.4996    1.7760   -0.0576 H   0  0  0  0  0  0  0  0  0  0  0  0
   -5.8716    0.8028   -1.3928 H   0  0  0  0  0  0  0  0  0  0  0  0
   -5.5257   -0.5819   -2.4134 H   0  0  0  0  0  0  0  0  0  0  0  0
   -8.2147   -2.0994   -0.6736 H   0  0  0  0  0  0  0  0  0  0  0  0
   -7.5143   -1.7546   -2.2329 H   0  0  0  0  0  0  0  0  0  0  0  0
   -9.6450   -0.4445   -1.3443 H   0  0  0  0  0  0  0  0  0  0  0  0
   -8.4422    0.3927   -2.3322 H   0  0  0  0  0  0  0  0  0  0  0  0
   -7.8246    1.0604    1.7182 H   0  0  0  0  0  0  0  0  0  0  0  0
   -8.7612   -0.3734    1.2934 H   0  0  0  0  0  0  0  0  0  0  0  0
   -5.8164    0.1420    1.0931 H   0  0  0  0  0  0  0  0  0  0  0  0
   -6.6722   -1.3172    1.5098 H   0  0  0  0  0  0  0  0  0  0  0  0
   -9.3714    2.5777    0.5819 H   0  0  0  0  0  0  0  0  0  0  0  0
  -10.4351    1.2003    0.2286 H   0  0  0  0  0  0  0  0  0  0  0  0
   -9.8533    2.2542   -1.0796 H   0  0  0  0  0  0  0  0  0  0  0  0
  1  2  1  0
  2  3  2  0
  3  4  1  0
  4  5  2  0
  5  6  1  0
  6  7  2  0
  7  8  1  0
  8  9  1  0
  9 10  2  0
 10 11  1  0
 11 12  2  0
 12 13  1  0
 11 14  1  0
 14 15  2  0
 15 16  1  0
 16 17  2  0
 17 18  1  0
 18 19  2  0
  5 20  1  0
 20 21  1  0
 21 22  2  0
 21 23  1  0
 23 24  2  0
 24 25  1  0
 25 26  2  0
 26 27  1  0
 27 28  2  0
 26 29  1  0
 29 30  1  0
 30 31  1  0
 31 32  1  0
 32 33  1  0
 33 34  1  0
 34 35  1  0
 33 36  1  0
  7  2  1  0
 13  9  1  0
 19 14  1  0
 28 23  1  0
 35 30  1  0
  1 37  1  0
  1 38  1  0
  1 39  1  0
  3 40  1  0
  4 41  1  0
  6 42  1  0
  8 43  1  0
 12 44  1  0
 15 45  1  0
 16 46  1  0
 17 47  1  0
 19 48  1  0
 20 49  1  0
 24 50  1  0
 25 51  1  0
 27 52  1  0
 28 53  1  0
 29 54  1  0
 29 55  1  0
 31 56  1  0
 31 57  1  0
 32 58  1  0
 32 59  1  0
 34 60  1  0
 34 61  1  0
 35 62  1  0
 35 63  1  0
 36 64  1  0
 36 65  1  0
 36 66  1  0
M  END
$$$$
